Molecule_1
  Mrv2316 01072400032D          

 14 14  0  0  0  0            999 V2000
    0.3062   -3.3589    0.0000 C   0  0  0  0  0  0  0  0  0  0  0  0
    0.3062   -2.5339    0.0000 C   0  0  0  0  0  0  0  0  0  0  0  0
    1.0207   -2.1214    0.0000 C   0  0  0  0  0  0  0  0  0  0  0  0
    1.0207   -1.2964    0.0000 C   0  0  0  0  0  0  0  0  0  0  0  0
    0.3062   -0.8839    0.0000 C   0  0  0  0  0  0  0  0  0  0  0  0
    0.3062   -0.0589    0.0000 C   0  0  0  0  0  0  0  0  0  0  0  0
    1.1312   -0.0589    0.0000 C   0  0  0  0  0  0  0  0  0  0  0  0
   -0.5188   -0.0589    0.0000 C   0  0  0  0  0  0  0  0  0  0  0  0
    0.3062    0.7661    0.0000 O   0  0  0  0  0  0  0  0  0  0  0  0
    1.0207    1.1786    0.0000 C   0  0  0  0  0  0  0  0  0  0  0  0
    1.0207    2.0036    0.0000 C   0  0  0  0  0  0  0  0  0  0  0  0
    1.7352    0.7661    0.0000 O   0  0  0  0  0  0  0  0  0  0  0  0
   -0.4083   -1.2964    0.0000 C   0  0  0  0  0  0  0  0  0  0  0  0
   -0.4083   -2.1214    0.0000 C   0  0  0  0  0  0  0  0  0  0  0  0
  1  2  1  0  0  0  0
  3  2  1  0  0  0  0
  4  3  1  0  0  0  0
  5  4  1  0  0  0  0
  5  6  1  0  0  0  0
  6  7  1  0  0  0  0
  6  8  1  0  0  0  0
  6  9  1  0  0  0  0
  9 10  1  0  0  0  0
 10 11  1  0  0  0  0
 10 12  2  0  0  0  0
 13  5  1  0  0  0  0
 14 13  1  0  0  0  0
  2 14  2  0  0  0  0
M  END
> <RowID>
1

> <Original_SMILES>
CC1CCC(CC=1)C(C)(C)OC(C)=O

> <Canonical_QSARr>
CC1CCC(CC=1)C(C)(C)OC(C)=O

> <InChI_Code_QSARr>
InChI=1S/C12H20O2/c1-9-5-7-11(8-6-9)12(3,4)14-10(2)13/h5,11H,6-8H2,1-4H3

> <InChI Key_QSARr>
IGODOXYLBBXFDW-UHFFFAOYSA-N

> <Salt_Solvent>


> <Salt_Solvent_ID>
0

> <Number of connected components>
1

$$$$
Molecule_2
  Mrv2316 01072400032D          

  2  1  0  0  0  0            999 V2000
    0.8250    0.0000    0.0000 O   0  0  0  0  0  0  0  0  0  0  0  0
    0.0000    0.0000    0.0000 C   0  0  0  0  0  0  0  0  0  0  0  0
  1  2  1  0  0  0  0
M  END
> <RowID>
2

> <Original_SMILES>
[Mg+2].C[O-].C[O-]

> <Canonical_QSARr>
CO

> <InChI_Code_QSARr>
InChI=1S/CH4O/c1-2/h2H,1H3

> <InChI Key_QSARr>
OKKJLVBELUTLKV-UHFFFAOYSA-N

> <Salt_Solvent>
[Mg+2]

> <Salt_Solvent_ID>
120

> <Number of connected components>
3

$$$$
Molecule_3
  Mrv2316 01072400032D          

 51 53  0  0  0  0            999 V2000
    0.8467   -9.9789    0.0000 C   0  0  0  0  0  0  0  0  0  0  0  0
    1.0449   -9.1781    0.0000 C   0  0  0  0  0  0  0  0  0  0  0  0
    1.8375   -8.9492    0.0000 C   0  0  0  0  0  0  0  0  0  0  0  0
    2.0356   -8.1484    0.0000 C   0  0  0  0  0  0  0  0  0  0  0  0
    2.8283   -7.9196    0.0000 C   0  0  0  0  0  0  0  0  0  0  0  0
    3.0264   -7.1187    0.0000 C   0  0  0  0  0  0  0  0  0  0  0  0
    3.8191   -6.8899    0.0000 C   0  0  0  0  0  0  0  0  0  0  0  0
    4.0172   -6.0891    0.0000 C   0  0  0  0  0  0  0  0  0  0  0  0
    4.8099   -5.8603    0.0000 C   0  0  0  0  0  0  0  0  0  0  0  0
    5.0080   -5.0594    0.0000 C   0  0  0  0  0  0  0  0  0  0  0  0
    5.8007   -4.8306    0.0000 O   0  0  0  0  0  0  0  0  0  0  0  0
    6.3951   -5.4026    0.0000 C   0  0  0  0  0  0  0  0  0  0  0  0
    6.1970   -6.2035    0.0000 C   0  0  0  0  0  0  0  0  0  0  0  0
    6.7915   -6.7755    0.0000 C   0  0  0  0  0  0  0  0  0  0  0  0
    7.5841   -6.5467    0.0000 C   0  0  0  0  0  0  0  0  0  0  0  0
    8.1786   -7.1187    0.0000 S   0  0  0  0  0  0  0  0  0  0  0  0
    7.6065   -7.7132    0.0000 O   0  0  0  0  0  0  0  0  0  0  0  0
    8.7506   -6.5243    0.0000 O   0  0  0  0  0  0  0  0  0  0  0  0
    8.7730   -7.6908    0.0000 C   0  0  0  0  0  0  0  0  0  0  0  0
    8.5749   -8.4916    0.0000 C   0  0  0  0  0  0  0  0  0  0  0  0
    9.1694   -9.0637    0.0000 C   0  0  0  0  0  0  0  0  0  0  0  0
    9.5657   -7.4620    0.0000 C   0  0  0  0  0  0  0  0  0  0  0  0
    9.7638   -6.6611    0.0000 O   0  0  0  0  0  0  0  0  0  0  0  0
   10.1601   -8.0340    0.0000 N   0  0  0  0  0  0  0  0  0  0  0  0
   10.9528   -7.8052    0.0000 C   0  0  0  0  0  0  0  0  0  0  0  0
   11.5473   -8.3772    0.0000 C   0  0  0  0  0  0  0  0  0  0  0  0
   12.3399   -8.1484    0.0000 C   0  0  0  0  0  0  0  0  0  0  0  0
   12.9344   -8.7204    0.0000 O   0  0  0  0  0  0  0  0  0  0  0  0
   12.5381   -7.3475    0.0000 C   0  0  0  0  0  0  0  0  0  0  0  0
   13.3307   -7.1187    0.0000 N   0  0  0  0  0  0  0  0  0  0  0  0
   13.9252   -7.6908    0.0000 C   0  0  0  0  0  0  0  0  0  0  0  0
   13.7270   -8.4916    0.0000 O   0  0  0  0  0  0  0  0  0  0  0  0
   14.7178   -7.4620    0.0000 C   0  0  0  0  0  0  0  0  0  0  0  0
   15.3123   -8.0340    0.0000 C   0  0  0  0  0  0  0  0  0  0  0  0
   16.1049   -7.8052    0.0000 C   0  0  0  0  0  0  0  0  0  0  0  0
   16.6994   -8.3772    0.0000 Cl  0  0  0  0  0  0  0  0  0  0  0  0
   16.3031   -7.0043    0.0000 C   0  0  0  0  0  0  0  0  0  0  0  0
   17.0957   -6.7755    0.0000 Cl  0  0  0  0  0  0  0  0  0  0  0  0
   15.7086   -6.4323    0.0000 C   0  0  0  0  0  0  0  0  0  0  0  0
   14.9160   -6.6611    0.0000 C   0  0  0  0  0  0  0  0  0  0  0  0
   11.9436   -6.7755    0.0000 C   0  0  0  0  0  0  0  0  0  0  0  0
   11.1509   -7.0043    0.0000 C   0  0  0  0  0  0  0  0  0  0  0  0
   10.5565   -6.4323    0.0000 Cl  0  0  0  0  0  0  0  0  0  0  0  0
    7.7822   -5.7459    0.0000 C   0  0  0  0  0  0  0  0  0  0  0  0
    7.1878   -5.1738    0.0000 C   0  0  0  0  0  0  0  0  0  0  0  0
    5.4043   -6.4323    0.0000 C   0  0  0  0  0  0  0  0  0  0  0  0
    5.2062   -7.2331    0.0000 C   0  0  0  0  0  0  0  0  0  0  0  0
    5.8007   -7.8052    0.0000 C   0  0  0  0  0  0  0  0  0  0  0  0
    5.6025   -8.6060    0.0000 C   0  0  0  0  0  0  0  0  0  0  0  0
    6.1970   -9.1781    0.0000 C   0  0  0  0  0  0  0  0  0  0  0  0
    5.9988   -9.9789    0.0000 C   0  0  0  0  0  0  0  0  0  0  0  0
  1  2  1  0  0  0  0
  2  3  1  0  0  0  0
  3  4  1  0  0  0  0
  4  5  1  0  0  0  0
  5  6  1  0  0  0  0
  6  7  1  0  0  0  0
  7  8  1  0  0  0  0
  8  9  1  0  0  0  0
  9 10  1  0  0  0  0
 10 11  1  0  0  0  0
 11 12  1  0  0  0  0
 13 12  1  0  0  0  0
 14 13  2  0  0  0  0
 15 14  1  0  0  0  0
 15 16  1  0  0  0  0
 16 17  2  0  0  0  0
 16 18  2  0  0  0  0
 16 19  1  0  0  0  0
 19 20  1  0  0  0  0
 20 21  1  0  0  0  0
 19 22  1  0  0  0  0
 22 23  2  0  0  0  0
 22 24  1  0  0  0  0
 24 25  1  0  0  0  0
 26 25  2  0  0  0  0
 27 26  1  0  0  0  0
 27 28  1  0  0  0  0
 29 27  2  0  0  0  0
 29 30  1  0  0  0  0
 30 31  1  0  0  0  0
 31 32  2  0  0  0  0
 31 33  1  0  0  0  0
 34 33  1  0  0  0  0
 35 34  2  0  0  0  0
 35 36  1  0  0  0  0
 37 35  1  0  0  0  0
 37 38  1  0  0  0  0
 39 37  2  0  0  0  0
 40 39  1  0  0  0  0
 33 40  2  0  0  0  0
 41 29  1  0  0  0  0
 42 41  2  0  0  0  0
 25 42  1  0  0  0  0
 42 43  1  0  0  0  0
 44 15  2  0  0  0  0
 45 44  1  0  0  0  0
 12 45  2  0  0  0  0
  9 46  1  0  0  0  0
 46 47  1  0  0  0  0
 47 48  1  0  0  0  0
 48 49  1  0  0  0  0
 49 50  1  0  0  0  0
 50 51  1  0  0  0  0
M  END
> <RowID>
3

> <Original_SMILES>
CCCCCCCCC(COC1C=CC(=CC=1)S(=O)(=O)C(CC)C(=O)NC1=CC(O)=C(C=C1Cl)NC(=O)C1C=C(Cl)C(Cl)=CC=1)CCCCCC

> <Canonical_QSARr>
CCCCCCCCC(COC1C=CC(=CC=1)S(=O)(=O)C(CC)C(=O)NC1=CC(O)=C(C=C1Cl)NC(=O)C1C=C(Cl)C(Cl)=CC=1)CCCCCC

> <InChI_Code_QSARr>
InChI=1S/C39H51Cl3N2O6S/c1-4-7-9-11-12-14-16-27(15-13-10-8-5-2)26-50-29-18-20-30(21-19-29)51(48,49)37(6-3)39(47)43-34-25-36(45)35(24-33(34)42)44-38(46)28-17-22-31(40)32(41)23-28/h17-25,27,37,45H,4-16,26H2,1-3H3,(H,43,47)(H,44,46)

> <InChI Key_QSARr>
OTSLJUWXGHUZEG-UHFFFAOYSA-N

> <Salt_Solvent>


> <Salt_Solvent_ID>
0

> <Number of connected components>
1

$$$$
Molecule_4
  Mrv2316 01072400032D          

 23 24  0  0  0  0            999 V2000
    0.7145    0.4484    0.0000 O   0  0  0  0  0  0  0  0  0  0  0  0
    0.7145   -0.3766    0.0000 C   0  0  0  0  0  0  0  0  0  0  0  0
    1.4290   -0.7891    0.0000 O   0  0  0  0  0  0  0  0  0  0  0  0
    2.1434   -0.3766    0.0000 C   0  0  0  0  0  0  0  0  0  0  0  0
    2.8579   -0.7891    0.0000 C   0  0  0  0  0  0  0  0  0  0  0  0
    3.5724   -0.3766    0.0000 O   0  0  0  0  0  0  0  0  0  0  0  0
    4.2868   -0.7891    0.0000 C   0  0  0  0  0  0  0  0  0  0  0  0
    5.0013   -0.3766    0.0000 C   0  0  0  0  0  0  0  0  0  0  0  0
    5.7158   -0.7891    0.0000 O   0  0  0  0  0  0  0  0  0  0  0  0
    6.4302   -0.3766    0.0000 C   0  0  0  0  0  0  0  0  0  0  0  0
    6.4302    0.4484    0.0000 O   0  0  0  0  0  0  0  0  0  0  0  0
    7.1447   -0.7891    0.0000 C   0  0  0  0  0  0  0  0  0  0  0  0
    7.1447   -1.6141    0.0000 C   0  0  0  0  0  0  0  0  0  0  0  0
    7.8592   -2.0266    0.0000 C   0  0  0  0  0  0  0  0  0  0  0  0
    8.5737   -1.6141    0.0000 C   0  0  0  0  0  0  0  0  0  0  0  0
    8.5737   -0.7891    0.0000 C   0  0  0  0  0  0  0  0  0  0  0  0
    7.8592   -0.3766    0.0000 C   0  0  0  0  0  0  0  0  0  0  0  0
    0.0000   -0.7891    0.0000 C   0  0  0  0  0  0  0  0  0  0  0  0
   -0.7145   -0.3766    0.0000 C   0  0  0  0  0  0  0  0  0  0  0  0
   -1.4289   -0.7891    0.0000 C   0  0  0  0  0  0  0  0  0  0  0  0
   -1.4289   -1.6141    0.0000 C   0  0  0  0  0  0  0  0  0  0  0  0
   -0.7145   -2.0266    0.0000 C   0  0  0  0  0  0  0  0  0  0  0  0
    0.0000   -1.6141    0.0000 C   0  0  0  0  0  0  0  0  0  0  0  0
  1  2  2  0  0  0  0
  2  3  1  0  0  0  0
  3  4  1  0  0  0  0
  4  5  1  0  0  0  0
  5  6  1  0  0  0  0
  6  7  1  0  0  0  0
  7  8  1  0  0  0  0
  8  9  1  0  0  0  0
  9 10  1  0  0  0  0
 10 11  2  0  0  0  0
 10 12  1  0  0  0  0
 13 12  2  0  0  0  0
 14 13  1  0  0  0  0
 15 14  2  0  0  0  0
 16 15  1  0  0  0  0
 17 16  2  0  0  0  0
 12 17  1  0  0  0  0
  2 18  1  0  0  0  0
 19 18  2  0  0  0  0
 20 19  1  0  0  0  0
 21 20  2  0  0  0  0
 22 21  1  0  0  0  0
 23 22  2  0  0  0  0
 18 23  1  0  0  0  0
M  END
> <RowID>
4

> <Original_SMILES>
O=C(OCCOCCOC(=O)C1=CC=CC=C1)C1=CC=CC=C1

> <Canonical_QSARr>
O=C(OCCOCCOC(=O)C1=CC=CC=C1)C1=CC=CC=C1

> <InChI_Code_QSARr>
InChI=1S/C18H18O5/c19-17(15-7-3-1-4-8-15)22-13-11-21-12-14-23-18(20)16-9-5-2-6-10-16/h1-10H,11-14H2

> <InChI Key_QSARr>
NXQMCAOPTPLPRL-UHFFFAOYSA-N

> <Salt_Solvent>


> <Salt_Solvent_ID>
0

> <Number of connected components>
1

$$$$
Molecule_5
  Mrv2316 01072400032D          

 12 11  0  0  0  0            999 V2000
    1.9520   -0.5230    0.0000 C   0  0  0  0  0  0  0  0  0  0  0  0
    1.9520    0.3020    0.0000 C   0  0  0  0  0  0  0  0  0  0  0  0
    1.2375    0.7145    0.0000 C   0  0  0  0  0  0  0  0  0  0  0  0
    0.5230    1.1270    0.0000 C   0  0  0  0  0  0  0  0  0  0  0  0
    0.5230    1.9520    0.0000 O   0  0  0  0  0  0  0  0  0  0  0  0
   -0.1914    2.3645    0.0000 C   0  0  0  0  0  0  0  0  0  0  0  0
   -0.1914    3.1895    0.0000 C   0  0  0  0  0  0  0  0  0  0  0  0
   -0.9059    3.6020    0.0000 C   0  0  0  0  0  0  0  0  0  0  0  0
    1.6500    1.4290    0.0000 C   0  0  0  0  0  0  0  0  0  0  0  0
    1.2375    2.1434    0.0000 O   0  0  0  0  0  0  0  0  0  0  0  0
    0.8250    0.0000    0.0000 C   0  0  0  0  0  0  0  0  0  0  0  0
    0.0000    0.0000    0.0000 O   0  0  0  0  0  0  0  0  0  0  0  0
  1  2  1  0  0  0  0
  2  3  1  0  0  0  0
  3  4  1  0  0  0  0
  4  5  1  0  0  0  0
  5  6  1  0  0  0  0
  6  7  1  0  0  0  0
  7  8  2  0  0  0  0
  3  9  1  0  0  0  0
  9 10  1  0  0  0  0
  3 11  1  0  0  0  0
 11 12  1  0  0  0  0
M  END
> <RowID>
5

> <Original_SMILES>
CCC(COCC=C)(CO)CO

> <Canonical_QSARr>
CCC(COCC=C)(CO)CO

> <InChI_Code_QSARr>
InChI=1S/C9H18O3/c1-3-5-12-8-9(4-2,6-10)7-11/h3,10-11H,1,4-8H2,2H3

> <InChI Key_QSARr>
LZDXRPVSAKWYDH-UHFFFAOYSA-N

> <Salt_Solvent>


> <Salt_Solvent_ID>
0

> <Number of connected components>
1

$$$$
Molecule_6
  Mrv2316 01072400032D          

  6  5  0  0  0  0            999 V2000
    2.4750   -1.4289    0.0000 O   0  0  0  0  0  0  0  0  0  0  0  0
    2.0625   -0.7145    0.0000 C   0  0  0  0  0  0  0  0  0  0  0  0
    2.4750   -0.0000    0.0000 O   0  0  0  0  0  0  0  0  0  0  0  0
    1.2375   -0.7145    0.0000 O   0  0  0  0  0  0  0  0  0  0  0  0
    0.8250   -0.0000    0.0000 C   0  0  0  0  0  0  0  0  0  0  0  0
    0.0000   -0.0000    0.0000 C   0  0  0  0  0  0  0  0  0  0  0  0
  1  2  1  0  0  0  0
  2  3  2  0  0  0  0
  2  4  1  0  0  0  0
  4  5  1  0  0  0  0
  5  6  1  0  0  0  0
M  END
> <RowID>
6

> <Original_SMILES>
[Mg+2].CCOC([O-])=O.CCOC([O-])=O

> <Canonical_QSARr>
CCOC(O)=O

> <InChI_Code_QSARr>
InChI=1S/C3H6O3/c1-2-6-3(4)5/h2H2,1H3,(H,4,5)

> <InChI Key_QSARr>
CQDGTJPVBWZJAZ-UHFFFAOYSA-N

> <Salt_Solvent>
[Mg+2]

> <Salt_Solvent_ID>
120

> <Number of connected components>
3

$$$$
Molecule_7
  Mrv2316 01072400032D          

  9  8  0  0  0  0            999 V2000
    0.4125    2.1434    0.0000 O   0  0  0  0  0  0  0  0  0  0  0  0
    0.8250    1.4289    0.0000 S   0  0  0  0  0  0  0  0  0  0  0  0
    0.1105    1.0164    0.0000 O   0  0  0  0  0  0  0  0  0  0  0  0
    1.5395    1.8414    0.0000 O   0  0  0  0  0  0  0  0  0  0  0  0
    1.2375    0.7145    0.0000 C   0  0  0  0  0  0  0  0  0  0  0  0
    2.0625    0.7145    0.0000 O   0  0  0  0  0  0  0  0  0  0  0  0
    0.8250   -0.0000    0.0000 C   0  0  0  0  0  0  0  0  0  0  0  0
    1.2375   -0.7145    0.0000 O   0  0  0  0  0  0  0  0  0  0  0  0
    0.0000   -0.0000    0.0000 O   0  0  0  0  0  0  0  0  0  0  0  0
  1  2  1  0  0  0  0
  2  3  2  0  0  0  0
  2  4  2  0  0  0  0
  2  5  1  0  0  0  0
  5  6  1  0  0  0  0
  5  7  1  0  0  0  0
  7  8  1  0  0  0  0
  7  9  2  0  0  0  0
M  END
> <RowID>
7

> <Original_SMILES>
[Na+].[Na+].[O-]C(=O)C(O)S([O-])(=O)=O

> <Canonical_QSARr>
OC(C(O)=O)S(O)(=O)=O

> <InChI_Code_QSARr>
InChI=1S/C2H4O6S/c3-1(4)2(5)9(6,7)8/h2,5H,(H,3,4)(H,6,7,8)

> <InChI Key_QSARr>
CEFDWZDNAJAKGO-UHFFFAOYSA-N

> <Salt_Solvent>
[Na+]

> <Salt_Solvent_ID>
110

> <Number of connected components>
3

$$$$
Molecule_9
  Mrv2316 01072400032D          

 16 15  0  0  0  0            999 V2000
    1.0461   -1.4289    0.0000 C   0  0  0  0  0  0  0  0  0  0  0  0
    1.7605   -1.8414    0.0000 C   0  0  0  0  0  0  0  0  0  0  0  0
    2.4750   -1.4289    0.0000 O   0  0  0  0  0  0  0  0  0  0  0  0
    3.1895   -1.8414    0.0000 C   0  0  0  0  0  0  0  0  0  0  0  0
    3.9040   -1.4289    0.0000 C   0  0  0  0  0  0  0  0  0  0  0  0
    4.6184   -1.8414    0.0000 C   0  0  0  0  0  0  0  0  0  0  0  0
    5.3329   -1.4289    0.0000 N   0  0  0  0  0  0  0  0  0  0  0  0
    6.0474   -1.8414    0.0000 C   0  0  0  0  0  0  0  0  0  0  0  0
    6.0474   -2.6664    0.0000 O   0  0  0  0  0  0  0  0  0  0  0  0
    6.7618   -1.4289    0.0000 C   0  0  0  0  0  0  0  0  0  0  0  0
    6.7618   -0.6039    0.0000 O   0  0  0  0  0  0  0  0  0  0  0  0
    7.4763   -1.8414    0.0000 C   0  0  0  0  0  0  0  0  0  0  0  0
    7.0638   -2.5559    0.0000 C   0  0  0  0  0  0  0  0  0  0  0  0
    7.8888   -1.1269    0.0000 C   0  0  0  0  0  0  0  0  0  0  0  0
    8.1908   -2.2539    0.0000 C   0  0  0  0  0  0  0  0  0  0  0  0
    8.9053   -1.8414    0.0000 O   0  0  0  0  0  0  0  0  0  0  0  0
  1  2  1  0  0  0  0
  2  3  1  0  0  0  0
  3  4  1  0  0  0  0
  4  5  1  0  0  0  0
  5  6  1  0  0  0  0
  6  7  1  0  0  0  0
  7  8  1  0  0  0  0
  8  9  2  0  0  0  0
  8 10  1  0  0  0  0
 10 11  1  0  0  0  0
 10 12  1  0  0  0  0
 12 13  1  0  0  0  0
 12 14  1  0  0  0  0
 12 15  1  0  0  0  0
 15 16  1  0  0  0  0
M  END
> <RowID>
9

> <Original_SMILES>
CCOCCCNC(=O)C(O)C(C)(C)CO

> <Canonical_QSARr>
CCOCCCNC(=O)C(O)C(C)(C)CO

> <InChI_Code_QSARr>
InChI=1S/C11H23NO4/c1-4-16-7-5-6-12-10(15)9(14)11(2,3)8-13/h9,13-14H,4-8H2,1-3H3,(H,12,15)

> <InChI Key_QSARr>
MRAMPOPITCOOIN-UHFFFAOYSA-N

> <Salt_Solvent>


> <Salt_Solvent_ID>
0

> <Number of connected components>
1

$$$$
Molecule_10
  Mrv2316 01072400032D          

 19 20  0  0  0  0            999 V2000
   -0.7145   -3.2783    0.0000 N   0  0  0  0  0  0  0  0  0  0  0  0
   -0.0000   -3.6908    0.0000 C   0  0  0  0  0  0  0  0  0  0  0  0
   -0.0000   -4.5158    0.0000 C   0  0  0  0  0  0  0  0  0  0  0  0
    0.7145   -4.9283    0.0000 C   0  0  0  0  0  0  0  0  0  0  0  0
    1.4289   -4.5158    0.0000 C   0  0  0  0  0  0  0  0  0  0  0  0
    2.1434   -4.9283    0.0000 C   0  0  0  0  0  0  0  0  0  0  0  0
    2.8579   -4.5158    0.0000 C   0  0  0  0  0  0  0  0  0  0  0  0
    3.5724   -4.9283    0.0000 N   0  0  0  0  0  0  0  0  0  0  0  0
    4.2868   -4.5158    0.0000 C   0  0  0  0  0  0  0  0  0  0  0  0
    5.0013   -4.9283    0.0000 C   0  0  0  0  0  0  0  0  0  0  0  0
    5.7158   -4.5158    0.0000 C   0  0  0  0  0  0  0  0  0  0  0  0
    6.4302   -4.9283    0.0000 C   0  0  0  0  0  0  0  0  0  0  0  0
    7.1447   -4.5158    0.0000 C   0  0  0  0  0  0  0  0  0  0  0  0
    7.1447   -3.6908    0.0000 C   0  0  0  0  0  0  0  0  0  0  0  0
    6.4302   -3.2783    0.0000 C   0  0  0  0  0  0  0  0  0  0  0  0
    5.7158   -3.6908    0.0000 C   0  0  0  0  0  0  0  0  0  0  0  0
    5.0013   -5.7533    0.0000 O   0  0  0  0  0  0  0  0  0  0  0  0
    1.4289   -3.6908    0.0000 C   0  0  0  0  0  0  0  0  0  0  0  0
    0.7145   -3.2783    0.0000 C   0  0  0  0  0  0  0  0  0  0  0  0
  1  2  1  0  0  0  0
  3  2  1  0  0  0  0
  4  3  2  0  0  0  0
  5  4  1  0  0  0  0
  5  6  1  0  0  0  0
  6  7  1  0  0  0  0
  7  8  1  0  0  0  0
  8  9  1  0  0  0  0
  9 10  1  0  0  0  0
 10 11  1  0  0  0  0
 12 11  2  0  0  0  0
 13 12  1  0  0  0  0
 14 13  2  0  0  0  0
 15 14  1  0  0  0  0
 16 15  2  0  0  0  0
 11 16  1  0  0  0  0
 10 17  1  0  0  0  0
 18  5  2  0  0  0  0
 19 18  1  0  0  0  0
  2 19  2  0  0  0  0
M  END
> <RowID>
10

> <Original_SMILES>
Cl.NC1=CC=C(CCNCC(O)C2C=CC=CC=2)C=C1

> <Canonical_QSARr>
NC1=CC=C(CCNCC(O)C2C=CC=CC=2)C=C1

> <InChI_Code_QSARr>
InChI=1S/C16H20N2O/c17-15-8-6-13(7-9-15)10-11-18-12-16(19)14-4-2-1-3-5-14/h1-9,16,18-19H,10-12,17H2

> <InChI Key_QSARr>
TUAHDMSPHZSMQN-UHFFFAOYSA-N

> <Salt_Solvent>
Cl

> <Salt_Solvent_ID>
170

> <Number of connected components>
2

$$$$
Molecule_11
  Mrv2316 01072400032D          

 21 20  0  0  0  0            999 V2000
    1.5395   -4.5375    0.0000 C   0  0  0  0  0  0  0  0  0  0  0  0
    0.8250   -4.1250    0.0000 N   0  0  0  0  0  0  0  0  0  0  0  0
    0.1105   -4.5375    0.0000 C   0  0  0  0  0  0  0  0  0  0  0  0
    0.1105   -5.3625    0.0000 C   0  0  0  0  0  0  0  0  0  0  0  0
   -0.6039   -5.7750    0.0000 O   0  0  0  0  0  0  0  0  0  0  0  0
    0.8250   -3.3000    0.0000 S   0  0  0  0  0  0  0  0  0  0  0  0
    1.6500   -3.3000    0.0000 O   0  0  0  0  0  0  0  0  0  0  0  0
    0.0000   -3.3000    0.0000 O   0  0  0  0  0  0  0  0  0  0  0  0
    0.8250   -2.4750    0.0000 C   0  0  0  0  0  0  0  0  0  0  0  0
    1.6500   -2.4750    0.0000 F   0  0  0  0  0  0  0  0  0  0  0  0
    0.0000   -2.4750    0.0000 F   0  0  0  0  0  0  0  0  0  0  0  0
    0.8250   -1.6500    0.0000 C   0  0  0  0  0  0  0  0  0  0  0  0
    1.6500   -1.6500    0.0000 F   0  0  0  0  0  0  0  0  0  0  0  0
    0.0000   -1.6500    0.0000 F   0  0  0  0  0  0  0  0  0  0  0  0
    0.8250   -0.8250    0.0000 C   0  0  0  0  0  0  0  0  0  0  0  0
    1.6500   -0.8250    0.0000 F   0  0  0  0  0  0  0  0  0  0  0  0
    0.0000   -0.8250    0.0000 F   0  0  0  0  0  0  0  0  0  0  0  0
    0.8250    0.0000    0.0000 C   0  0  0  0  0  0  0  0  0  0  0  0
    0.8250    0.8250    0.0000 F   0  0  0  0  0  0  0  0  0  0  0  0
    1.6500    0.0000    0.0000 F   0  0  0  0  0  0  0  0  0  0  0  0
    0.0000    0.0000    0.0000 F   0  0  0  0  0  0  0  0  0  0  0  0
  1  2  1  0  0  0  0
  2  3  1  0  0  0  0
  3  4  1  0  0  0  0
  4  5  1  0  0  0  0
  2  6  1  0  0  0  0
  6  7  2  0  0  0  0
  6  8  2  0  0  0  0
  6  9  1  0  0  0  0
  9 10  1  0  0  0  0
  9 11  1  0  0  0  0
  9 12  1  0  0  0  0
 12 13  1  0  0  0  0
 12 14  1  0  0  0  0
 12 15  1  0  0  0  0
 15 16  1  0  0  0  0
 15 17  1  0  0  0  0
 15 18  1  0  0  0  0
 18 19  1  0  0  0  0
 18 20  1  0  0  0  0
 18 21  1  0  0  0  0
M  END
> <RowID>
11

> <Original_SMILES>
CN(CCO)S(=O)(=O)C(F)(F)C(F)(F)C(F)(F)C(F)(F)F

> <Canonical_QSARr>
CN(CCO)S(=O)(=O)C(F)(F)C(F)(F)C(F)(F)C(F)(F)F

> <InChI_Code_QSARr>
InChI=1S/C7H8F9NO3S/c1-17(2-3-18)21(19,20)7(15,16)5(10,11)4(8,9)6(12,13)14/h18H,2-3H2,1H3

> <InChI Key_QSARr>
DSRUAYIFDCHEEV-UHFFFAOYSA-N

> <Salt_Solvent>


> <Salt_Solvent_ID>
0

> <Number of connected components>
1

$$$$
Molecule_12
  Mrv2316 01072400032D          

 31 33  0  0  0  0            999 V2000
    4.9804    3.3693    0.0000 C   0  0  0  0  0  0  0  0  0  0  0  0
    4.4297    2.6959    0.0000 C   0  0  0  0  0  0  0  0  0  0  0  0
    4.2991    1.8703    0.0000 C   0  0  0  0  0  0  0  0  0  0  0  0
    3.5848    1.3897    0.0000 C   0  0  0  0  0  0  0  0  0  0  0  0
    3.9997    0.5572    0.0000 O   0  0  0  0  0  0  0  0  0  0  0  0
    4.6769    0.0390    0.0000 C   0  0  0  0  0  0  0  0  0  0  0  0
    4.5703   -0.7791    0.0000 O   0  0  0  0  0  0  0  0  0  0  0  0
    5.4387    0.3557    0.0000 C   0  0  0  0  0  0  0  0  0  0  0  0
    6.0938   -0.1456    0.0000 O   0  0  0  0  0  0  0  0  0  0  0  0
    6.8556    0.1711    0.0000 S   0  0  0  0  0  0  0  0  0  0  0  0
    7.6174    0.4878    0.0000 C   0  0  0  0  0  0  0  0  0  0  0  0
    6.5389    0.9329    0.0000 O   0  0  0  0  0  0  0  0  0  0  0  0
    7.1723   -0.5907    0.0000 O   0  0  0  0  0  0  0  0  0  0  0  0
    2.7118    1.4788    0.0000 C   0  0  0  0  0  0  0  0  0  0  0  0
    2.9132    0.5965    0.0000 C   0  0  0  0  0  0  0  0  0  0  0  0
    2.5746    2.2176    0.0000 C   0  0  0  0  0  0  0  0  0  0  0  0
    1.9105    1.7281    0.0000 C   0  0  0  0  0  0  0  0  0  0  0  0
    2.0965    0.7660    0.0000 O   0  0  0  0  0  0  0  0  0  0  0  0
    1.2397    2.2084    0.0000 C   0  0  0  0  0  0  0  0  0  0  0  0
    1.4893    2.9947    0.0000 C   0  0  0  0  0  0  0  0  0  0  0  0
    2.3143    3.0004    0.0000 C   0  0  0  0  0  0  0  0  0  0  0  0
    1.4914    2.6790    0.0000 C   0  0  0  0  0  0  0  0  0  0  0  0
    1.2170    1.8675    0.0000 C   0  0  0  0  0  0  0  0  0  0  0  0
    1.8496    1.2899    0.0000 C   0  0  0  0  0  0  0  0  0  0  0  0
    1.2758    0.5819    0.0000 C   0  0  0  0  0  0  0  0  0  0  0  0
    3.0585    3.4307    0.0000 C   0  0  0  0  0  0  0  0  0  0  0  0
    2.8849    4.2764    0.0000 C   0  0  0  0  0  0  0  0  0  0  0  0
    3.9162    3.3554    0.0000 C   0  0  0  0  0  0  0  0  0  0  0  0
    4.1826    4.1927    0.0000 O   0  0  0  0  0  0  0  0  0  0  0  0
    5.3256    2.3901    0.0000 C   0  0  0  0  0  0  0  0  0  0  0  0
    6.0615    2.8437    0.0000 C   0  0  0  0  0  0  0  0  0  0  0  0
  1  2  1  0  0  0  0
  3  2  1  0  0  0  0
  4  3  1  0  0  0  0
  4  5  1  0  0  0  0
  5  6  1  0  0  0  0
  6  7  2  0  0  0  0
  6  8  1  0  0  0  0
  8  9  1  0  0  0  0
  9 10  1  0  0  0  0
 10 11  1  0  0  0  0
 10 12  2  0  0  0  0
 10 13  2  0  0  0  0
 14  4  1  0  0  0  0
 14 15  1  0  0  0  0
 14 16  1  0  0  0  0
 16 17  1  0  0  0  0
 17 18  2  0  0  0  0
 17 19  1  0  0  0  0
 19 20  1  0  0  0  0
 20 21  1  0  0  0  0
 16 21  1  0  0  0  0
 21 22  1  0  0  0  0
 22 23  1  0  0  0  0
 23 24  1  0  0  0  0
 24 14  1  0  0  0  0
 24 25  1  0  0  0  0
 26 21  1  0  0  0  0
 26 27  1  0  0  0  0
 28 26  1  0  0  0  0
  2 28  1  0  0  0  0
 28 29  1  0  0  0  0
  2 30  1  0  0  0  0
 30 31  2  0  0  0  0
M  END
> <RowID>
12

> <Original_SMILES>
CC1(CC(OC(=O)COS(C)(=O)=O)C2(C)C3C(=O)CCC3(CCC2C)C(C)C1O)C=C

> <Canonical_QSARr>
CC1(CC(OC(=O)COS(C)(=O)=O)C2(C)C3C(=O)CCC3(CCC2C)C(C)C1O)C=C

> <InChI_Code_QSARr>
InChI=1S/C23H36O7S/c1-7-21(4)12-17(30-18(25)13-29-31(6,27)28)22(5)14(2)8-10-23(15(3)20(21)26)11-9-16(24)19(22)23/h7,14-15,17,19-20,26H,1,8-13H2,2-6H3

> <InChI Key_QSARr>
IKVZCNHNKCXZHZ-UHFFFAOYSA-N

> <Salt_Solvent>


> <Salt_Solvent_ID>
0

> <Number of connected components>
1

$$$$
Molecule_14
  Mrv2316 01072400032D          

 22 21  0  0  0  0            999 V2000
    7.0125   -0.7145    0.0000 F   0  0  0  0  0  0  0  0  0  0  0  0
    6.1875   -0.7145    0.0000 C   0  0  0  0  0  0  0  0  0  0  0  0
    6.1875    0.1105    0.0000 F   0  0  0  0  0  0  0  0  0  0  0  0
    6.1875   -1.5395    0.0000 F   0  0  0  0  0  0  0  0  0  0  0  0
    5.3625   -0.7145    0.0000 C   0  0  0  0  0  0  0  0  0  0  0  0
    5.3625    0.1105    0.0000 F   0  0  0  0  0  0  0  0  0  0  0  0
    5.3625   -1.5395    0.0000 F   0  0  0  0  0  0  0  0  0  0  0  0
    4.5375   -0.7145    0.0000 C   0  0  0  0  0  0  0  0  0  0  0  0
    4.5375    0.1105    0.0000 F   0  0  0  0  0  0  0  0  0  0  0  0
    4.5375   -1.5395    0.0000 F   0  0  0  0  0  0  0  0  0  0  0  0
    3.7125   -0.7145    0.0000 C   0  0  0  0  0  0  0  0  0  0  0  0
    3.7125    0.1105    0.0000 F   0  0  0  0  0  0  0  0  0  0  0  0
    3.7125   -1.5395    0.0000 F   0  0  0  0  0  0  0  0  0  0  0  0
    2.8875   -0.7145    0.0000 C   0  0  0  0  0  0  0  0  0  0  0  0
    2.8875    0.1105    0.0000 F   0  0  0  0  0  0  0  0  0  0  0  0
    2.8875   -1.5395    0.0000 F   0  0  0  0  0  0  0  0  0  0  0  0
    2.0625   -0.7145    0.0000 C   0  0  0  0  0  0  0  0  0  0  0  0
    2.0625    0.1105    0.0000 F   0  0  0  0  0  0  0  0  0  0  0  0
    2.0625   -1.5395    0.0000 F   0  0  0  0  0  0  0  0  0  0  0  0
    1.2375   -0.7145    0.0000 C   0  0  0  0  0  0  0  0  0  0  0  0
    0.8250   -0.0000    0.0000 C   0  0  0  0  0  0  0  0  0  0  0  0
    0.0000   -0.0000    0.0000 S   0  0  0  0  0  0  0  0  0  0  0  0
  1  2  1  0  0  0  0
  2  3  1  0  0  0  0
  2  4  1  0  0  0  0
  2  5  1  0  0  0  0
  5  6  1  0  0  0  0
  5  7  1  0  0  0  0
  5  8  1  0  0  0  0
  8  9  1  0  0  0  0
  8 10  1  0  0  0  0
  8 11  1  0  0  0  0
 11 12  1  0  0  0  0
 11 13  1  0  0  0  0
 11 14  1  0  0  0  0
 14 15  1  0  0  0  0
 14 16  1  0  0  0  0
 14 17  1  0  0  0  0
 17 18  1  0  0  0  0
 17 19  1  0  0  0  0
 17 20  1  0  0  0  0
 20 21  1  0  0  0  0
 21 22  1  0  0  0  0
M  END
> <RowID>
14

> <Original_SMILES>
FC(F)(F)C(F)(F)C(F)(F)C(F)(F)C(F)(F)C(F)(F)CCS

> <Canonical_QSARr>
FC(F)(F)C(F)(F)C(F)(F)C(F)(F)C(F)(F)C(F)(F)CCS

> <InChI_Code_QSARr>
InChI=1S/C8H5F13S/c9-3(10,1-2-22)4(11,12)5(13,14)6(15,16)7(17,18)8(19,20)21/h22H,1-2H2

> <InChI Key_QSARr>
GTPHVVCYEWPQFE-UHFFFAOYSA-N

> <Salt_Solvent>


> <Salt_Solvent_ID>
0

> <Number of connected components>
1

$$$$
Molecule_15
  Mrv2316 01072400032D          

 13 14  0  0  0  0            999 V2000
    3.4990    1.4912    0.0000 O   0  5  0  0  0  0  0  0  0  0  0  0
    2.7845    1.9037    0.0000 N   0  3  0  0  0  0  0  0  0  0  0  0
    2.7845    2.7287    0.0000 O   0  0  0  0  0  0  0  0  0  0  0  0
    2.0701    1.4912    0.0000 C   0  0  0  0  0  0  0  0  0  0  0  0
    1.3556    1.9037    0.0000 C   0  0  0  0  0  0  0  0  0  0  0  0
    0.6411    1.4912    0.0000 C   0  0  0  0  0  0  0  0  0  0  0  0
   -0.1435    1.7461    0.0000 N   0  0  0  0  0  0  0  0  0  0  0  0
   -0.6284    1.0787    0.0000 C   0  0  0  0  0  0  0  0  0  0  0  0
   -1.4534    1.0787    0.0000 O   0  0  0  0  0  0  0  0  0  0  0  0
   -0.1435    0.4112    0.0000 N   0  0  0  0  0  0  0  0  0  0  0  0
    0.6411    0.6662    0.0000 C   0  0  0  0  0  0  0  0  0  0  0  0
    1.3556    0.2537    0.0000 C   0  0  0  0  0  0  0  0  0  0  0  0
    2.0701    0.6662    0.0000 C   0  0  0  0  0  0  0  0  0  0  0  0
  1  2  1  0  0  0  0
  2  3  2  0  0  0  0
  2  4  1  0  0  0  0
  5  4  1  0  0  0  0
  6  5  2  0  0  0  0
  6  7  1  0  0  0  0
  7  8  1  0  0  0  0
  8  9  2  0  0  0  0
  8 10  1  0  0  0  0
 10 11  1  0  0  0  0
 11  6  1  0  0  0  0
 12 11  2  0  0  0  0
 13 12  1  0  0  0  0
  4 13  2  0  0  0  0
M  CHG  2   1  -1   2   1
M  END
> <RowID>
15

> <Original_SMILES>
[O-][N+](=O)C1C=C2NC(=O)NC2=CC=1

> <Canonical_QSARr>
[O-][N+](=O)C1C=C2NC(=O)NC2=CC=1

> <InChI_Code_QSARr>
InChI=1S/C7H5N3O3/c11-7-8-5-2-1-4(10(12)13)3-6(5)9-7/h1-3H,(H2,8,9,11)

> <InChI Key_QSARr>
DLJZIPVEVJOKHB-UHFFFAOYSA-N

> <Salt_Solvent>


> <Salt_Solvent_ID>
0

> <Number of connected components>
1

$$$$
Molecule_16
  Mrv2316 01072400032D          

  9 10  0  0  0  0            999 V2000
    3.3523    1.1104    0.0000 C   0  0  0  0  0  0  0  0  0  0  0  0
    3.3523    1.9354    0.0000 C   0  0  0  0  0  0  0  0  0  0  0  0
    2.6378    2.3479    0.0000 O   0  0  0  0  0  0  0  0  0  0  0  0
    1.9233    1.9354    0.0000 C   0  0  0  0  0  0  0  0  0  0  0  0
    1.1387    2.1904    0.0000 C   0  0  0  0  0  0  0  0  0  0  0  0
    0.6538    1.5229    0.0000 S   0  0  0  0  0  0  0  0  0  0  0  0
    1.1387    0.8555    0.0000 C   0  0  0  0  0  0  0  0  0  0  0  0
    1.9233    1.1104    0.0000 C   0  0  0  0  0  0  0  0  0  0  0  0
    2.6378    0.6979    0.0000 O   0  0  0  0  0  0  0  0  0  0  0  0
  2  1  1  0  0  0  0
  3  2  1  0  0  0  0
  4  3  1  0  0  0  0
  4  5  2  0  0  0  0
  5  6  1  0  0  0  0
  6  7  1  0  0  0  0
  7  8  2  0  0  0  0
  8  4  1  0  0  0  0
  9  8  1  0  0  0  0
  1  9  1  0  0  0  0
M  END
> <RowID>
16

> <Original_SMILES>
C1COC2=CSC=C2O1

> <Canonical_QSARr>
C1COC2=CSC=C2O1

> <InChI_Code_QSARr>
InChI=1S/C6H6O2S/c1-2-8-6-4-9-3-5(6)7-1/h3-4H,1-2H2

> <InChI Key_QSARr>
GKWLILHTTGWKLQ-UHFFFAOYSA-N

> <Salt_Solvent>


> <Salt_Solvent_ID>
0

> <Number of connected components>
1

$$$$
Molecule_17
  Mrv2316 01072400032D          

 26 28  0  0  0  0            999 V2000
    2.1434  -16.0875    0.0000 O   0  0  0  0  0  0  0  0  0  0  0  0
    2.1434  -15.2625    0.0000 C   0  0  0  0  0  0  0  0  0  0  0  0
    2.8579  -14.8500    0.0000 C   0  0  0  0  0  0  0  0  0  0  0  0
    2.8579  -14.0250    0.0000 C   0  0  0  0  0  0  0  0  0  0  0  0
    2.1434  -13.6125    0.0000 C   0  0  0  0  0  0  0  0  0  0  0  0
    2.1434  -12.7875    0.0000 C   0  0  0  0  0  0  0  0  0  0  0  0
    1.4289  -12.3750    0.0000 O   0  0  0  0  0  0  0  0  0  0  0  0
    2.8579  -12.3750    0.0000 O   0  0  0  0  0  0  0  0  0  0  0  0
    2.8579  -11.5500    0.0000 C   0  0  0  0  0  0  0  0  0  0  0  0
    3.5724  -11.1375    0.0000 C   0  0  0  0  0  0  0  0  0  0  0  0
    3.5724  -10.3125    0.0000 C   0  0  0  0  0  0  0  0  0  0  0  0
    2.8579   -9.9000    0.0000 C   0  0  0  0  0  0  0  0  0  0  0  0
    2.8579   -9.0750    0.0000 O   0  0  0  0  0  0  0  0  0  0  0  0
    3.5724   -8.6625    0.0000 C   0  0  0  0  0  0  0  0  0  0  0  0
    4.2868   -9.0750    0.0000 O   0  0  0  0  0  0  0  0  0  0  0  0
    3.5724   -7.8375    0.0000 C   0  0  0  0  0  0  0  0  0  0  0  0
    4.2868   -7.4250    0.0000 C   0  0  0  0  0  0  0  0  0  0  0  0
    4.2868   -6.6000    0.0000 C   0  0  0  0  0  0  0  0  0  0  0  0
    3.5724   -6.1875    0.0000 C   0  0  0  0  0  0  0  0  0  0  0  0
    3.5724   -5.3625    0.0000 O   0  0  0  0  0  0  0  0  0  0  0  0
    2.8579   -6.6000    0.0000 C   0  0  0  0  0  0  0  0  0  0  0  0
    2.8579   -7.4250    0.0000 C   0  0  0  0  0  0  0  0  0  0  0  0
    2.1434  -10.3125    0.0000 C   0  0  0  0  0  0  0  0  0  0  0  0
    2.1434  -11.1375    0.0000 C   0  0  0  0  0  0  0  0  0  0  0  0
    1.4289  -14.0250    0.0000 C   0  0  0  0  0  0  0  0  0  0  0  0
    1.4289  -14.8500    0.0000 C   0  0  0  0  0  0  0  0  0  0  0  0
  1  2  1  0  0  0  0
  3  2  1  0  0  0  0
  4  3  2  0  0  0  0
  5  4  1  0  0  0  0
  5  6  1  0  0  0  0
  6  7  2  0  0  0  0
  6  8  1  0  0  0  0
  8  9  1  0  0  0  0
 10  9  1  0  0  0  0
 11 10  2  0  0  0  0
 12 11  1  0  0  0  0
 12 13  1  0  0  0  0
 13 14  1  0  0  0  0
 14 15  2  0  0  0  0
 14 16  1  0  0  0  0
 17 16  1  0  0  0  0
 18 17  2  0  0  0  0
 19 18  1  0  0  0  0
 19 20  1  0  0  0  0
 21 19  2  0  0  0  0
 22 21  1  0  0  0  0
 16 22  2  0  0  0  0
 23 12  2  0  0  0  0
 24 23  1  0  0  0  0
  9 24  2  0  0  0  0
 25  5  2  0  0  0  0
 26 25  1  0  0  0  0
  2 26  2  0  0  0  0
M  END
> <RowID>
17

> <Original_SMILES>
OC1C=CC(=CC=1)C(=O)OC1C=CC(=CC=1)OC(=O)C1C=CC(O)=CC=1

> <Canonical_QSARr>
OC1C=CC(=CC=1)C(=O)OC1C=CC(=CC=1)OC(=O)C1C=CC(O)=CC=1

> <InChI_Code_QSARr>
InChI=1S/C20H14O6/c21-15-5-1-13(2-6-15)19(23)25-17-9-11-18(12-10-17)26-20(24)14-3-7-16(22)8-4-14/h1-12,21-22H

> <InChI Key_QSARr>
WDNYOQDNYCWKPU-UHFFFAOYSA-N

> <Salt_Solvent>


> <Salt_Solvent_ID>
0

> <Number of connected components>
1

$$$$
Molecule_19
  Mrv2316 01072400032D          

 19 21  0  0  0  0            999 V2000
    0.4183   -4.7190    0.0000 N   0  0  0  0  0  0  0  0  0  0  0  0
    0.9703   -4.1059    0.0000 C   0  0  0  0  0  0  0  0  0  0  0  0
    1.7773   -4.2775    0.0000 C   0  0  0  0  0  0  0  0  0  0  0  0
    2.3294   -3.6644    0.0000 C   0  0  0  0  0  0  0  0  0  0  0  0
    3.1544   -3.6644    0.0000 C   0  0  0  0  0  0  0  0  0  0  0  0
    3.7064   -4.2775    0.0000 C   0  0  0  0  0  0  0  0  0  0  0  0
    4.5134   -4.1059    0.0000 C   0  0  0  0  0  0  0  0  0  0  0  0
    4.7683   -3.3213    0.0000 C   0  0  0  0  0  0  0  0  0  0  0  0
    4.2163   -2.7082    0.0000 C   0  0  0  0  0  0  0  0  0  0  0  0
    3.4093   -2.8797    0.0000 C   0  0  0  0  0  0  0  0  0  0  0  0
    2.7419   -2.3948    0.0000 N   0  0  0  0  0  0  0  0  0  0  0  0
    2.7419   -1.5698    0.0000 C   0  0  0  0  0  0  0  0  0  0  0  0
    2.0274   -1.1573    0.0000 C   0  0  0  0  0  0  0  0  0  0  0  0
    2.0274   -0.3323    0.0000 C   0  0  0  0  0  0  0  0  0  0  0  0
    1.3129    0.0802    0.0000 O   0  0  0  0  0  0  0  0  0  0  0  0
    2.7419    0.0802    0.0000 O   0  0  0  0  0  0  0  0  0  0  0  0
    2.0744   -2.8797    0.0000 C   0  0  0  0  0  0  0  0  0  0  0  0
    1.2674   -2.7082    0.0000 C   0  0  0  0  0  0  0  0  0  0  0  0
    0.7154   -3.3213    0.0000 C   0  0  0  0  0  0  0  0  0  0  0  0
  1  2  1  0  0  0  0
  3  2  1  0  0  0  0
  4  3  1  0  0  0  0
  4  5  1  0  0  0  0
  6  5  2  0  0  0  0
  7  6  1  0  0  0  0
  8  7  2  0  0  0  0
  9  8  1  0  0  0  0
 10  9  2  0  0  0  0
  5 10  1  0  0  0  0
 10 11  1  0  0  0  0
 11 12  1  0  0  0  0
 12 13  1  0  0  0  0
 13 14  1  0  0  0  0
 14 15  1  0  0  0  0
 14 16  2  0  0  0  0
 11 17  1  0  0  0  0
 17  4  2  0  0  0  0
 18 17  1  0  0  0  0
 19 18  1  0  0  0  0
  2 19  1  0  0  0  0
M  END
> <RowID>
19

> <Original_SMILES>
NC1CC2C3=CC=CC=C3N(CCC(O)=O)C=2CC1

> <Canonical_QSARr>
NC1CC2C3=CC=CC=C3N(CCC(O)=O)C=2CC1

> <InChI_Code_QSARr>
InChI=1S/C15H18N2O2/c16-10-5-6-14-12(9-10)11-3-1-2-4-13(11)17(14)8-7-15(18)19/h1-4,10H,5-9,16H2,(H,18,19)

> <InChI Key_QSARr>
RRWZRHNYCZSEBR-UHFFFAOYSA-N

> <Salt_Solvent>


> <Salt_Solvent_ID>
0

> <Number of connected components>
1

$$$$
Molecule_20
  Mrv2316 01072400032D          

 22 25  0  0  0  0            999 V2000
    0.7846   -0.2549    0.0000 N   0  0  0  0  0  0  0  0  0  0  0  0
    1.2695    0.4125    0.0000 C   0  0  0  0  0  0  0  0  0  0  0  0
    1.0146    1.1971    0.0000 O   0  0  0  0  0  0  0  0  0  0  0  0
    2.0542    0.1576    0.0000 C   0  0  0  0  0  0  0  0  0  0  0  0
    2.8388    0.4125    0.0000 C   0  0  0  0  0  0  0  0  0  0  0  0
    3.3237   -0.2549    0.0000 N   0  0  0  0  0  0  0  0  0  0  0  0
    2.8388   -0.9224    0.0000 C   0  0  0  0  0  0  0  0  0  0  0  0
    3.0937   -1.7070    0.0000 O   0  0  0  0  0  0  0  0  0  0  0  0
    2.0542   -0.6674    0.0000 C   0  0  0  0  0  0  0  0  0  0  0  0
    1.2695   -0.9224    0.0000 C   0  0  0  0  0  0  0  0  0  0  0  0
    1.0146   -1.7070    0.0000 C   0  0  0  0  0  0  0  0  0  0  0  0
    0.2076   -1.8785    0.0000 C   0  0  0  0  0  0  0  0  0  0  0  0
   -0.0473   -2.6631    0.0000 C   0  0  0  0  0  0  0  0  0  0  0  0
    0.5047   -3.2762    0.0000 C   0  0  0  0  0  0  0  0  0  0  0  0
    1.3117   -3.1047    0.0000 C   0  0  0  0  0  0  0  0  0  0  0  0
    1.5666   -2.3201    0.0000 C   0  0  0  0  0  0  0  0  0  0  0  0
    3.0937    1.1971    0.0000 C   0  0  0  0  0  0  0  0  0  0  0  0
    3.9007    1.3687    0.0000 C   0  0  0  0  0  0  0  0  0  0  0  0
    4.1556    2.1533    0.0000 C   0  0  0  0  0  0  0  0  0  0  0  0
    3.6036    2.7664    0.0000 C   0  0  0  0  0  0  0  0  0  0  0  0
    2.7966    2.5948    0.0000 C   0  0  0  0  0  0  0  0  0  0  0  0
    2.5417    1.8102    0.0000 C   0  0  0  0  0  0  0  0  0  0  0  0
  2  1  1  0  0  0  0
  2  3  2  0  0  0  0
  4  2  1  0  0  0  0
  4  5  2  0  0  0  0
  5  6  1  0  0  0  0
  6  7  1  0  0  0  0
  7  8  2  0  0  0  0
  7  9  1  0  0  0  0
  9  4  1  0  0  0  0
 10  9  1  0  0  0  0
  1 10  2  0  0  0  0
 10 11  1  0  0  0  0
 12 11  1  0  0  0  0
 13 12  2  0  0  0  0
 14 13  1  0  0  0  0
 15 14  2  0  0  0  0
 16 15  1  0  0  0  0
 11 16  2  0  0  0  0
  5 17  1  0  0  0  0
 18 17  1  0  0  0  0
 19 18  2  0  0  0  0
 20 19  1  0  0  0  0
 21 20  2  0  0  0  0
 22 21  1  0  0  0  0
 17 22  2  0  0  0  0
M  END
> <RowID>
20

> <Original_SMILES>
O=C1NC(=C2C1=C(NC2=O)C1C=CC=CC=1)C1C=CC=CC=1

> <Canonical_QSARr>
O=C1N=C(C2C1=C(NC2=O)C1C=CC=CC=1)C1C=CC=CC=1

> <InChI_Code_QSARr>
InChI=1S/C18H12N2O2/c21-17-13-14(16(20-17)12-9-5-2-6-10-12)18(22)19-15(13)11-7-3-1-4-8-11/h1-10,13H,(H,20,21)

> <InChI Key_QSARr>
UDIFTOFBJORZNR-UHFFFAOYSA-N

> <Salt_Solvent>


> <Salt_Solvent_ID>
0

> <Number of connected components>
1

$$$$
Molecule_21
  Mrv2316 01072400032D          

 54 57  0  0  0  0            999 V2000
   -2.3962  -14.5166    0.0000 C   0  0  0  0  0  0  0  0  0  0  0  0
   -1.9113  -13.8491    0.0000 C   0  0  0  0  0  0  0  0  0  0  0  0
   -1.0908  -13.9354    0.0000 C   0  0  0  0  0  0  0  0  0  0  0  0
   -0.6059  -13.2679    0.0000 C   0  0  0  0  0  0  0  0  0  0  0  0
    0.2146  -13.3542    0.0000 C   0  0  0  0  0  0  0  0  0  0  0  0
    1.0350  -13.4404    0.0000 C   0  0  0  0  0  0  0  0  0  0  0  0
    0.3008  -12.5337    0.0000 C   0  0  0  0  0  0  0  0  0  0  0  0
    0.1283  -14.1747    0.0000 C   0  0  0  0  0  0  0  0  0  0  0  0
   -0.9415  -12.5143    0.0000 C   0  0  0  0  0  0  0  0  0  0  0  0
   -0.4566  -11.8468    0.0000 O   0  0  0  0  0  0  0  0  0  0  0  0
    0.3639  -11.9331    0.0000 C   0  0  0  0  0  0  0  0  0  0  0  0
    0.6995  -12.6867    0.0000 O   0  0  0  0  0  0  0  0  0  0  0  0
    0.8488  -11.2656    0.0000 C   0  0  0  0  0  0  0  0  0  0  0  0
    0.5939  -10.4810    0.0000 C   0  0  0  0  0  0  0  0  0  0  0  0
   -0.1907  -10.2261    0.0000 C   0  0  0  0  0  0  0  0  0  0  0  0
   -0.9753   -9.9711    0.0000 N   0  0  0  0  0  0  0  0  0  0  0  0
    1.2613   -9.9961    0.0000 C   0  0  0  0  0  0  0  0  0  0  0  0
    1.2613   -9.1711    0.0000 O   0  0  0  0  0  0  0  0  0  0  0  0
    1.9758   -8.7586    0.0000 C   0  0  0  0  0  0  0  0  0  0  0  0
    2.6903   -9.1711    0.0000 O   0  0  0  0  0  0  0  0  0  0  0  0
    1.9758   -7.9336    0.0000 N   0  0  0  0  0  0  0  0  0  0  0  0
    1.2613   -7.5211    0.0000 C   0  0  0  0  0  0  0  0  0  0  0  0
    1.2613   -6.6961    0.0000 C   0  0  0  0  0  0  0  0  0  0  0  0
    1.9758   -6.2836    0.0000 O   0  0  0  0  0  0  0  0  0  0  0  0
    0.5469   -6.2836    0.0000 O   0  0  0  0  0  0  0  0  0  0  0  0
    0.5469   -5.4586    0.0000 C   0  0  0  0  0  0  0  0  0  0  0  0
   -0.1676   -5.0461    0.0000 C   0  0  0  0  0  0  0  0  0  0  0  0
    2.6903   -7.5211    0.0000 C   0  0  0  0  0  0  0  0  0  0  0  0
    2.6903   -6.6961    0.0000 C   0  0  0  0  0  0  0  0  0  0  0  0
    2.3547   -5.9424    0.0000 O   0  0  0  0  0  0  0  0  0  0  0  0
    3.4048   -6.2836    0.0000 O   0  0  0  0  0  0  0  0  0  0  0  0
    3.4048   -5.4586    0.0000 C   0  0  0  0  0  0  0  0  0  0  0  0
    4.1192   -5.0461    0.0000 C   0  0  0  0  0  0  0  0  0  0  0  0
    1.9288  -10.4810    0.0000 N   0  0  0  0  0  0  0  0  0  0  0  0
    2.7538  -10.4810    0.0000 N   0  0  0  0  0  0  0  0  0  0  0  0
    3.0087  -11.2656    0.0000 C   0  0  0  0  0  0  0  0  0  0  0  0
    2.3413  -11.7505    0.0000 N   0  0  0  0  0  0  0  0  0  0  0  0
    1.6738  -11.2656    0.0000 C   0  0  0  0  0  0  0  0  0  0  0  0
    3.7933  -11.5206    0.0000 C   0  0  0  0  0  0  0  0  0  0  0  0
    3.9649  -12.3275    0.0000 C   0  0  0  0  0  0  0  0  0  0  0  0
    4.7495  -12.5825    0.0000 C   0  0  0  0  0  0  0  0  0  0  0  0
    5.3626  -12.0304    0.0000 C   0  0  0  0  0  0  0  0  0  0  0  0
    6.1472  -12.2854    0.0000 C   0  0  0  0  0  0  0  0  0  0  0  0
    6.9318  -12.5403    0.0000 C   0  0  0  0  0  0  0  0  0  0  0  0
    6.4022  -11.5008    0.0000 C   0  0  0  0  0  0  0  0  0  0  0  0
    5.8923  -13.0700    0.0000 C   0  0  0  0  0  0  0  0  0  0  0  0
    5.1911  -11.2235    0.0000 C   0  0  0  0  0  0  0  0  0  0  0  0
    4.4064  -10.9685    0.0000 C   0  0  0  0  0  0  0  0  0  0  0  0
   -1.7620  -12.4280    0.0000 C   0  0  0  0  0  0  0  0  0  0  0  0
   -2.0975  -11.6744    0.0000 C   0  0  0  0  0  0  0  0  0  0  0  0
   -2.4331  -10.9207    0.0000 C   0  0  0  0  0  0  0  0  0  0  0  0
   -2.8512  -12.0099    0.0000 C   0  0  0  0  0  0  0  0  0  0  0  0
   -1.3438  -11.3388    0.0000 C   0  0  0  0  0  0  0  0  0  0  0  0
   -2.2469  -13.0955    0.0000 C   0  0  0  0  0  0  0  0  0  0  0  0
  1  2  1  0  0  0  0
  3  2  1  0  0  0  0
  4  3  1  0  0  0  0
  4  5  1  0  0  0  0
  5  6  1  0  0  0  0
  5  7  1  0  0  0  0
  5  8  1  0  0  0  0
  9  4  1  0  0  0  0
  9 10  1  0  0  0  0
 10 11  1  0  0  0  0
 11 12  2  0  0  0  0
 11 13  1  0  0  0  0
 14 13  1  0  0  0  0
 14 15  1  0  0  0  0
 15 16  3  0  0  0  0
 17 14  2  0  0  0  0
 17 18  1  0  0  0  0
 18 19  1  0  0  0  0
 19 20  2  0  0  0  0
 19 21  1  0  0  0  0
 21 22  1  0  0  0  0
 22 23  1  0  0  0  0
 23 24  2  0  0  0  0
 23 25  1  0  0  0  0
 25 26  1  0  0  0  0
 26 27  1  0  0  0  0
 21 28  1  0  0  0  0
 28 29  1  0  0  0  0
 29 30  2  0  0  0  0
 29 31  1  0  0  0  0
 31 32  1  0  0  0  0
 32 33  1  0  0  0  0
 34 17  1  0  0  0  0
 34 35  1  0  0  0  0
 35 36  2  0  0  0  0
 36 37  1  0  0  0  0
 37 38  1  0  0  0  0
 13 38  2  0  0  0  0
 38 34  1  0  0  0  0
 36 39  1  0  0  0  0
 40 39  1  0  0  0  0
 41 40  2  0  0  0  0
 42 41  1  0  0  0  0
 42 43  1  0  0  0  0
 43 44  1  0  0  0  0
 43 45  1  0  0  0  0
 43 46  1  0  0  0  0
 47 42  2  0  0  0  0
 48 47  1  0  0  0  0
 39 48  2  0  0  0  0
 49  9  1  0  0  0  0
 49 50  1  0  0  0  0
 50 51  1  0  0  0  0
 50 52  1  0  0  0  0
 50 53  1  0  0  0  0
 54 49  1  0  0  0  0
  2 54  1  0  0  0  0
M  END
> <RowID>
21

> <Original_SMILES>
CC1CC(C(OC(=O)C2C(C#N)=C(OC(=O)N(CC(=O)OCC)CC(=O)OCC)N3N=C(NC3=2)C2C=CC(=CC=2)C(C)(C)C)C(C1)C(C)(C)C)C(C)(C)C

> <Canonical_QSARr>
CC1CC(C(OC(=O)C2C(C#N)=C(OC(=O)N(CC(=O)OCC)CC(=O)OCC)N3N=C(NC3=2)C2C=CC(=CC=2)C(C)(C)C)C(C1)C(C)(C)C)C(C)(C)C

> <InChI_Code_QSARr>
InChI=1S/C41H57N5O8/c1-13-51-30(47)22-45(23-31(48)52-14-2)38(50)54-36-27(21-42)32(35-43-34(44-46(35)36)25-15-17-26(18-16-25)39(4,5)6)37(49)53-33-28(40(7,8)9)19-24(3)20-29(33)41(10,11)12/h15-18,24,28-29,33H,13-14,19-20,22-23H2,1-12H3,(H,43,44)

> <InChI Key_QSARr>
BSFARPZVGXSFEA-UHFFFAOYSA-N

> <Salt_Solvent>


> <Salt_Solvent_ID>
0

> <Number of connected components>
1

$$$$
Molecule_22
  Mrv2316 01072400032D          

 16 17  0  0  0  0            999 V2000
   -1.8308   -3.5320    0.0000 O   0  0  0  0  0  0  0  0  0  0  0  0
   -1.1164   -3.9445    0.0000 C   0  0  0  0  0  0  0  0  0  0  0  0
   -1.1164   -4.7695    0.0000 C   0  0  0  0  0  0  0  0  0  0  0  0
   -0.4019   -5.1820    0.0000 C   0  0  0  0  0  0  0  0  0  0  0  0
    0.3126   -4.7695    0.0000 C   0  0  0  0  0  0  0  0  0  0  0  0
    0.3126   -3.9445    0.0000 C   0  0  0  0  0  0  0  0  0  0  0  0
   -0.4019   -3.5320    0.0000 C   0  0  0  0  0  0  0  0  0  0  0  0
   -0.4019   -2.7070    0.0000 C   0  0  0  0  0  0  0  0  0  0  0  0
   -1.1164   -2.2945    0.0000 O   0  0  0  0  0  0  0  0  0  0  0  0
    0.3126   -2.2945    0.0000 O   0  0  0  0  0  0  0  0  0  0  0  0
    0.3126   -1.4695    0.0000 C   0  0  0  0  0  0  0  0  0  0  0  0
    1.0270   -1.0570    0.0000 C   0  0  0  0  0  0  0  0  0  0  0  0
    1.0270   -0.2320    0.0000 C   0  0  0  0  0  0  0  0  0  0  0  0
    0.3126    0.1805    0.0000 C   0  0  0  0  0  0  0  0  0  0  0  0
   -0.4019   -0.2320    0.0000 C   0  0  0  0  0  0  0  0  0  0  0  0
   -0.4019   -1.0570    0.0000 C   0  0  0  0  0  0  0  0  0  0  0  0
  1  2  1  0  0  0  0
  3  2  1  0  0  0  0
  4  3  2  0  0  0  0
  5  4  1  0  0  0  0
  6  5  2  0  0  0  0
  7  6  1  0  0  0  0
  2  7  2  0  0  0  0
  7  8  1  0  0  0  0
  8  9  2  0  0  0  0
  8 10  1  0  0  0  0
 10 11  1  0  0  0  0
 12 11  1  0  0  0  0
 13 12  1  0  0  0  0
 14 13  1  0  0  0  0
 15 14  1  0  0  0  0
 16 15  1  0  0  0  0
 11 16  1  0  0  0  0
M  END
> <RowID>
22

> <Original_SMILES>
OC1C=CC=CC=1C(=O)OC1CCCCC1

> <Canonical_QSARr>
OC1C=CC=CC=1C(=O)OC1CCCCC1

> <InChI_Code_QSARr>
InChI=1S/C13H16O3/c14-12-9-5-4-8-11(12)13(15)16-10-6-2-1-3-7-10/h4-5,8-10,14H,1-3,6-7H2

> <InChI Key_QSARr>
NUQDJSMHGCTKNL-UHFFFAOYSA-N

> <Salt_Solvent>


> <Salt_Solvent_ID>
0

> <Number of connected components>
1

$$$$
Molecule_25
  Mrv2316 01072400032D          

 28 28  0  0  0  0            999 V2000
   -4.2613   -1.6942    0.0000 C   0  0  0  0  0  0  0  0  0  0  0  0
   -3.5469   -1.2817    0.0000 C   0  0  0  0  0  0  0  0  0  0  0  0
   -2.8324   -1.6942    0.0000 C   0  0  0  0  0  0  0  0  0  0  0  0
   -2.1179   -1.2817    0.0000 C   0  0  0  0  0  0  0  0  0  0  0  0
   -1.4034   -1.6942    0.0000 C   0  0  0  0  0  0  0  0  0  0  0  0
   -0.6890   -1.2817    0.0000 C   0  0  0  0  0  0  0  0  0  0  0  0
    0.0255   -1.6942    0.0000 O   0  0  0  0  0  0  0  0  0  0  0  0
    0.7400   -1.2817    0.0000 C   0  0  0  0  0  0  0  0  0  0  0  0
    0.7400   -0.4567    0.0000 O   0  0  0  0  0  0  0  0  0  0  0  0
    1.4544   -1.6942    0.0000 C   0  0  0  0  0  0  0  0  0  0  0  0
    1.4544   -2.5192    0.0000 C   0  0  0  0  0  0  0  0  0  0  0  0
    2.1689   -2.9317    0.0000 C   0  0  0  0  0  0  0  0  0  0  0  0
    2.8834   -2.5192    0.0000 C   0  0  0  0  0  0  0  0  0  0  0  0
    2.8834   -1.6942    0.0000 C   0  0  0  0  0  0  0  0  0  0  0  0
    2.1689   -1.2817    0.0000 C   0  0  0  0  0  0  0  0  0  0  0  0
    2.1689   -0.4567    0.0000 C   0  0  0  0  0  0  0  0  0  0  0  0
    1.4544   -0.0442    0.0000 O   0  0  0  0  0  0  0  0  0  0  0  0
    2.8834   -0.0442    0.0000 O   0  0  0  0  0  0  0  0  0  0  0  0
    3.5978   -0.4567    0.0000 C   0  0  0  0  0  0  0  0  0  0  0  0
    4.3123   -0.0442    0.0000 C   0  0  0  0  0  0  0  0  0  0  0  0
    5.0268   -0.4567    0.0000 C   0  0  0  0  0  0  0  0  0  0  0  0
    5.7413   -0.0442    0.0000 C   0  0  0  0  0  0  0  0  0  0  0  0
    6.4557   -0.4567    0.0000 C   0  0  0  0  0  0  0  0  0  0  0  0
    7.1702   -0.0442    0.0000 C   0  0  0  0  0  0  0  0  0  0  0  0
    4.3123    0.7808    0.0000 C   0  0  0  0  0  0  0  0  0  0  0  0
    5.0268    1.1933    0.0000 C   0  0  0  0  0  0  0  0  0  0  0  0
   -1.4034   -2.5192    0.0000 C   0  0  0  0  0  0  0  0  0  0  0  0
   -0.6890   -2.9317    0.0000 C   0  0  0  0  0  0  0  0  0  0  0  0
  1  2  1  0  0  0  0
  2  3  1  0  0  0  0
  3  4  1  0  0  0  0
  4  5  1  0  0  0  0
  5  6  1  0  0  0  0
  6  7  1  0  0  0  0
  7  8  1  0  0  0  0
  8  9  2  0  0  0  0
  8 10  1  0  0  0  0
 11 10  1  0  0  0  0
 12 11  2  0  0  0  0
 13 12  1  0  0  0  0
 14 13  2  0  0  0  0
 15 14  1  0  0  0  0
 10 15  2  0  0  0  0
 15 16  1  0  0  0  0
 16 17  2  0  0  0  0
 16 18  1  0  0  0  0
 18 19  1  0  0  0  0
 19 20  1  0  0  0  0
 20 21  1  0  0  0  0
 21 22  1  0  0  0  0
 22 23  1  0  0  0  0
 23 24  1  0  0  0  0
 20 25  1  0  0  0  0
 25 26  1  0  0  0  0
  5 27  1  0  0  0  0
 27 28  1  0  0  0  0
M  END
> <RowID>
25

> <Original_SMILES>
CCCCC(COC(=O)C1C=CC=CC=1C(=O)OCC(CCCC)CC)CC

> <Canonical_QSARr>
CCCCC(COC(=O)C1C=CC=CC=1C(=O)OCC(CCCC)CC)CC

> <InChI_Code_QSARr>
InChI=1S/C24H38O4/c1-5-9-13-19(7-3)17-27-23(25)21-15-11-12-16-22(21)24(26)28-18-20(8-4)14-10-6-2/h11-12,15-16,19-20H,5-10,13-14,17-18H2,1-4H3

> <InChI Key_QSARr>
BJQHLKABXJIVAM-UHFFFAOYSA-N

> <Salt_Solvent>


> <Salt_Solvent_ID>
0

> <Number of connected components>
1

$$$$
Molecule_26
  Mrv2316 01072400032D          

 14 14  0  0  0  0            999 V2000
    2.0413   -0.2357    0.0000 C   0  0  0  0  0  0  0  0  0  0  0  0
    1.3269    0.1768    0.0000 O   0  0  0  0  0  0  0  0  0  0  0  0
    1.3269    1.0018    0.0000 C   0  0  0  0  0  0  0  0  0  0  0  0
    2.0413    1.4143    0.0000 O   0  0  0  0  0  0  0  0  0  0  0  0
    0.6124    1.4143    0.0000 C   0  0  0  0  0  0  0  0  0  0  0  0
    0.6124    2.2393    0.0000 C   0  0  0  0  0  0  0  0  0  0  0  0
   -0.1021    2.6518    0.0000 C   0  0  0  0  0  0  0  0  0  0  0  0
   -0.1021    3.4768    0.0000 F   0  0  0  0  0  0  0  0  0  0  0  0
   -0.8165    2.2393    0.0000 C   0  0  0  0  0  0  0  0  0  0  0  0
   -0.8165    1.4143    0.0000 C   0  0  0  0  0  0  0  0  0  0  0  0
   -0.1021    1.0018    0.0000 C   0  0  0  0  0  0  0  0  0  0  0  0
   -0.1021    0.1768    0.0000 N   0  3  0  0  0  0  0  0  0  0  0  0
    0.6124   -0.2357    0.0000 O   0  5  0  0  0  0  0  0  0  0  0  0
   -0.8165   -0.2357    0.0000 O   0  0  0  0  0  0  0  0  0  0  0  0
  1  2  1  0  0  0  0
  2  3  1  0  0  0  0
  3  4  2  0  0  0  0
  3  5  1  0  0  0  0
  6  5  1  0  0  0  0
  7  6  2  0  0  0  0
  7  8  1  0  0  0  0
  9  7  1  0  0  0  0
 10  9  2  0  0  0  0
 11 10  1  0  0  0  0
  5 11  2  0  0  0  0
 11 12  1  0  0  0  0
 12 13  1  0  0  0  0
 12 14  2  0  0  0  0
M  CHG  2  12   1  13  -1
M  END
> <RowID>
26

> <Original_SMILES>
COC(=O)C1C=C(F)C=CC=1[N+]([O-])=O

> <Canonical_QSARr>
COC(=O)C1C=C(F)C=CC=1[N+]([O-])=O

> <InChI_Code_QSARr>
InChI=1S/C8H6FNO4/c1-14-8(11)6-4-5(9)2-3-7(6)10(12)13/h2-4H,1H3

> <InChI Key_QSARr>
LCAUVFVOLNRVKG-UHFFFAOYSA-N

> <Salt_Solvent>


> <Salt_Solvent_ID>
0

> <Number of connected components>
1

$$$$
Molecule_28
  Mrv2316 01072400032D          

 77 76  0  0  0  0            999 V2000
   -5.8559   -0.1401    0.0000 C   0  0  0  0  0  0  0  0  0  0  0  0
   -5.4434   -0.8546    0.0000 C   0  0  0  0  0  0  0  0  0  0  0  0
   -6.1579   -1.2671    0.0000 C   0  0  0  0  0  0  0  0  0  0  0  0
   -4.7289   -0.4421    0.0000 C   0  0  0  0  0  0  0  0  0  0  0  0
   -5.0309   -1.5691    0.0000 C   0  0  0  0  0  0  0  0  0  0  0  0
   -4.2059   -1.5691    0.0000 C   0  0  0  0  0  0  0  0  0  0  0  0
   -3.7934   -0.8546    0.0000 C   0  0  0  0  0  0  0  0  0  0  0  0
   -3.7934   -2.2835    0.0000 C   0  0  0  0  0  0  0  0  0  0  0  0
   -2.9684   -2.2835    0.0000 C   0  0  0  0  0  0  0  0  0  0  0  0
   -2.5559   -1.5691    0.0000 O   0  0  0  0  0  0  0  0  0  0  0  0
   -2.5559   -2.9980    0.0000 O   0  0  0  0  0  0  0  0  0  0  0  0
   -1.7309   -2.9980    0.0000 C   0  0  0  0  0  0  0  0  0  0  0  0
   -1.3184   -3.7125    0.0000 C   0  0  0  0  0  0  0  0  0  0  0  0
   -0.9059   -4.4269    0.0000 C   0  0  0  0  0  0  0  0  0  0  0  0
   -0.0809   -4.4269    0.0000 O   0  0  0  0  0  0  0  0  0  0  0  0
    0.3316   -5.1414    0.0000 C   0  0  0  0  0  0  0  0  0  0  0  0
    1.1566   -5.1414    0.0000 C   0  0  0  0  0  0  0  0  0  0  0  0
    1.9816   -5.1414    0.0000 C   0  0  0  0  0  0  0  0  0  0  0  0
    2.3941   -5.8559    0.0000 O   0  0  0  0  0  0  0  0  0  0  0  0
    3.2191   -5.8559    0.0000 C   0  0  0  0  0  0  0  0  0  0  0  0
    3.6316   -5.1414    0.0000 O   0  0  0  0  0  0  0  0  0  0  0  0
    3.6316   -6.5704    0.0000 C   0  0  0  0  0  0  0  0  0  0  0  0
    3.2191   -7.2848    0.0000 C   0  0  0  0  0  0  0  0  0  0  0  0
    2.3941   -7.2848    0.0000 C   0  0  0  0  0  0  0  0  0  0  0  0
    3.6316   -7.9993    0.0000 C   0  0  0  0  0  0  0  0  0  0  0  0
    3.2191   -8.7138    0.0000 C   0  0  0  0  0  0  0  0  0  0  0  0
    2.8066   -9.4282    0.0000 C   0  0  0  0  0  0  0  0  0  0  0  0
    2.5046   -8.3013    0.0000 C   0  0  0  0  0  0  0  0  0  0  0  0
    3.9336   -9.1263    0.0000 C   0  0  0  0  0  0  0  0  0  0  0  0
    1.1566   -5.9664    0.0000 C   0  0  0  0  0  0  0  0  0  0  0  0
    0.4421   -6.3789    0.0000 O   0  0  0  0  0  0  0  0  0  0  0  0
    0.4421   -7.2039    0.0000 C   0  0  0  0  0  0  0  0  0  0  0  0
    1.1566   -7.6164    0.0000 O   0  0  0  0  0  0  0  0  0  0  0  0
   -0.2724   -7.6164    0.0000 C   0  0  0  0  0  0  0  0  0  0  0  0
   -0.9868   -7.2039    0.0000 C   0  0  0  0  0  0  0  0  0  0  0  0
   -0.9868   -6.3789    0.0000 C   0  0  0  0  0  0  0  0  0  0  0  0
   -1.7013   -7.6164    0.0000 C   0  0  0  0  0  0  0  0  0  0  0  0
   -1.7013   -8.4414    0.0000 C   0  0  0  0  0  0  0  0  0  0  0  0
   -2.5263   -8.4414    0.0000 C   0  0  0  0  0  0  0  0  0  0  0  0
   -0.8763   -8.4414    0.0000 C   0  0  0  0  0  0  0  0  0  0  0  0
   -1.7013   -9.2664    0.0000 C   0  0  0  0  0  0  0  0  0  0  0  0
    1.1566   -4.3164    0.0000 C   0  0  0  0  0  0  0  0  0  0  0  0
    1.8711   -3.9039    0.0000 O   0  0  0  0  0  0  0  0  0  0  0  0
    2.5855   -4.3164    0.0000 C   0  0  0  0  0  0  0  0  0  0  0  0
    2.5855   -5.1414    0.0000 O   0  0  0  0  0  0  0  0  0  0  0  0
    3.3000   -3.9039    0.0000 C   0  0  0  0  0  0  0  0  0  0  0  0
    3.3000   -3.0789    0.0000 C   0  0  0  0  0  0  0  0  0  0  0  0
    4.0145   -2.6664    0.0000 C   0  0  0  0  0  0  0  0  0  0  0  0
    2.5855   -2.6664    0.0000 C   0  0  0  0  0  0  0  0  0  0  0  0
    2.5855   -1.8414    0.0000 C   0  0  0  0  0  0  0  0  0  0  0  0
    3.4105   -1.8414    0.0000 C   0  0  0  0  0  0  0  0  0  0  0  0
    1.7605   -1.8414    0.0000 C   0  0  0  0  0  0  0  0  0  0  0  0
    2.5855   -1.0164    0.0000 C   0  0  0  0  0  0  0  0  0  0  0  0
   -2.0329   -4.1250    0.0000 C   0  0  0  0  0  0  0  0  0  0  0  0
   -2.0329   -4.9500    0.0000 O   0  0  0  0  0  0  0  0  0  0  0  0
   -2.7474   -5.3625    0.0000 C   0  0  0  0  0  0  0  0  0  0  0  0
   -3.4618   -4.9500    0.0000 O   0  0  0  0  0  0  0  0  0  0  0  0
   -2.7474   -6.1875    0.0000 C   0  0  0  0  0  0  0  0  0  0  0  0
   -3.4618   -6.6000    0.0000 C   0  0  0  0  0  0  0  0  0  0  0  0
   -4.1763   -6.1875    0.0000 C   0  0  0  0  0  0  0  0  0  0  0  0
   -3.4618   -7.4250    0.0000 C   0  0  0  0  0  0  0  0  0  0  0  0
   -4.1763   -7.8375    0.0000 C   0  0  0  0  0  0  0  0  0  0  0  0
   -4.5888   -7.1230    0.0000 C   0  0  0  0  0  0  0  0  0  0  0  0
   -3.7638   -8.5519    0.0000 C   0  0  0  0  0  0  0  0  0  0  0  0
   -4.8908   -8.2500    0.0000 C   0  0  0  0  0  0  0  0  0  0  0  0
   -0.6039   -3.3000    0.0000 C   0  0  0  0  0  0  0  0  0  0  0  0
   -0.6039   -2.4750    0.0000 O   0  0  0  0  0  0  0  0  0  0  0  0
    0.1105   -2.0625    0.0000 C   0  0  0  0  0  0  0  0  0  0  0  0
    0.8250   -2.4750    0.0000 O   0  0  0  0  0  0  0  0  0  0  0  0
    0.1105   -1.2375    0.0000 C   0  0  0  0  0  0  0  0  0  0  0  0
    0.8250   -0.8250    0.0000 C   0  0  0  0  0  0  0  0  0  0  0  0
    1.5395   -1.2375    0.0000 C   0  0  0  0  0  0  0  0  0  0  0  0
    0.8250    0.0000    0.0000 C   0  0  0  0  0  0  0  0  0  0  0  0
    1.5395    0.4125    0.0000 C   0  0  0  0  0  0  0  0  0  0  0  0
    1.9520   -0.3019    0.0000 C   0  0  0  0  0  0  0  0  0  0  0  0
    1.1270    1.1270    0.0000 C   0  0  0  0  0  0  0  0  0  0  0  0
    2.2539    0.8250    0.0000 C   0  0  0  0  0  0  0  0  0  0  0  0
  1  2  1  0  0  0  0
  2  3  1  0  0  0  0
  2  4  1  0  0  0  0
  2  5  1  0  0  0  0
  5  6  1  0  0  0  0
  6  7  1  0  0  0  0
  6  8  1  0  0  0  0
  8  9  1  0  0  0  0
  9 10  2  0  0  0  0
  9 11  1  0  0  0  0
 11 12  1  0  0  0  0
 12 13  1  0  0  0  0
 13 14  1  0  0  0  0
 14 15  1  0  0  0  0
 15 16  1  0  0  0  0
 16 17  1  0  0  0  0
 17 18  1  0  0  0  0
 18 19  1  0  0  0  0
 19 20  1  0  0  0  0
 20 21  2  0  0  0  0
 20 22  1  0  0  0  0
 22 23  1  0  0  0  0
 23 24  1  0  0  0  0
 23 25  1  0  0  0  0
 25 26  1  0  0  0  0
 26 27  1  0  0  0  0
 26 28  1  0  0  0  0
 26 29  1  0  0  0  0
 17 30  1  0  0  0  0
 30 31  1  0  0  0  0
 31 32  1  0  0  0  0
 32 33  2  0  0  0  0
 32 34  1  0  0  0  0
 34 35  1  0  0  0  0
 35 36  1  0  0  0  0
 35 37  1  0  0  0  0
 37 38  1  0  0  0  0
 38 39  1  0  0  0  0
 38 40  1  0  0  0  0
 38 41  1  0  0  0  0
 17 42  1  0  0  0  0
 42 43  1  0  0  0  0
 43 44  1  0  0  0  0
 44 45  2  0  0  0  0
 44 46  1  0  0  0  0
 46 47  1  0  0  0  0
 47 48  1  0  0  0  0
 47 49  1  0  0  0  0
 49 50  1  0  0  0  0
 50 51  1  0  0  0  0
 50 52  1  0  0  0  0
 50 53  1  0  0  0  0
 13 54  1  0  0  0  0
 54 55  1  0  0  0  0
 55 56  1  0  0  0  0
 56 57  2  0  0  0  0
 56 58  1  0  0  0  0
 58 59  1  0  0  0  0
 59 60  1  0  0  0  0
 59 61  1  0  0  0  0
 61 62  1  0  0  0  0
 62 63  1  0  0  0  0
 62 64  1  0  0  0  0
 62 65  1  0  0  0  0
 13 66  1  0  0  0  0
 66 67  1  0  0  0  0
 67 68  1  0  0  0  0
 68 69  2  0  0  0  0
 68 70  1  0  0  0  0
 70 71  1  0  0  0  0
 71 72  1  0  0  0  0
 71 73  1  0  0  0  0
 73 74  1  0  0  0  0
 74 75  1  0  0  0  0
 74 76  1  0  0  0  0
 74 77  1  0  0  0  0
M  END
> <RowID>
28

> <Original_SMILES>
CC(C)(C)CC(C)CC(=O)OCC(COCC(COC(=O)CC(C)CC(C)(C)C)(COC(=O)CC(C)CC(C)(C)C)COC(=O)CC(C)CC(C)(C)C)(COC(=O)CC(C)CC(C)(C)C)COC(=O)CC(C)CC(C)(C)C

> <Canonical_QSARr>
CC(C)(C)CC(C)CC(=O)OCC(COCC(COC(=O)CC(C)CC(C)(C)C)(COC(=O)CC(C)CC(C)(C)C)COC(=O)CC(C)CC(C)(C)C)(COC(=O)CC(C)CC(C)(C)C)COC(=O)CC(C)CC(C)(C)C

> <InChI_Code_QSARr>
InChI=1S/C64H118O13/c1-45(31-57(7,8)9)25-51(65)72-39-63(40-73-52(66)26-46(2)32-58(10,11)12,41-74-53(67)27-47(3)33-59(13,14)15)37-71-38-64(42-75-54(68)28-48(4)34-60(16,17)18,43-76-55(69)29-49(5)35-61(19,20)21)44-77-56(70)30-50(6)36-62(22,23)24/h45-50H,25-44H2,1-24H3

> <InChI Key_QSARr>
GJIDQGCYINNRBJ-UHFFFAOYSA-N

> <Salt_Solvent>


> <Salt_Solvent_ID>
0

> <Number of connected components>
1

$$$$
Molecule_29
  Mrv2316 01072400032D          

 36 37  0  0  0  0            999 V2000
   -1.4289   -1.8563    0.0000 C   0  0  0  0  0  0  0  0  0  0  0  0
   -1.4289   -1.0313    0.0000 C   0  0  0  0  0  0  0  0  0  0  0  0
   -0.7145   -0.6188    0.0000 O   0  0  0  0  0  0  0  0  0  0  0  0
   -0.0000   -1.0312    0.0000 P   0  0  0  0  0  0  0  0  0  0  0  0
   -0.0000   -1.8563    0.0000 O   0  0  0  0  0  0  0  0  0  0  0  0
    0.7145   -2.2687    0.0000 C   0  0  0  0  0  0  0  0  0  0  0  0
    0.7145   -3.0938    0.0000 C   0  0  0  0  0  0  0  0  0  0  0  0
   -0.0000   -3.5062    0.0000 C   0  0  0  0  0  0  0  0  0  0  0  0
   -0.7145   -3.9187    0.0000 C   0  0  0  0  0  0  0  0  0  0  0  0
    0.4125   -4.2207    0.0000 C   0  0  0  0  0  0  0  0  0  0  0  0
   -0.4125   -2.7918    0.0000 C   0  0  0  0  0  0  0  0  0  0  0  0
    1.4289   -3.5063    0.0000 C   0  0  0  0  0  0  0  0  0  0  0  0
    2.1434   -3.0938    0.0000 C   0  0  0  0  0  0  0  0  0  0  0  0
    2.8579   -3.5063    0.0000 C   0  0  0  0  0  0  0  0  0  0  0  0
    3.5724   -3.9188    0.0000 C   0  0  0  0  0  0  0  0  0  0  0  0
    3.2704   -2.7918    0.0000 C   0  0  0  0  0  0  0  0  0  0  0  0
    2.4454   -4.2207    0.0000 C   0  0  0  0  0  0  0  0  0  0  0  0
    2.1434   -2.2688    0.0000 C   0  0  0  0  0  0  0  0  0  0  0  0
    1.4289   -1.8563    0.0000 C   0  0  0  0  0  0  0  0  0  0  0  0
    1.4289   -1.0313    0.0000 C   0  0  0  0  0  0  0  0  0  0  0  0
    0.7145   -0.6187    0.0000 O   0  0  0  0  0  0  0  0  0  0  0  0
    0.7145    0.2063    0.0000 C   0  0  0  0  0  0  0  0  0  0  0  0
    1.4289    0.6188    0.0000 C   0  0  0  0  0  0  0  0  0  0  0  0
    2.1434    0.2063    0.0000 C   0  0  0  0  0  0  0  0  0  0  0  0
    2.8579   -0.2062    0.0000 C   0  0  0  0  0  0  0  0  0  0  0  0
    2.5559    0.9207    0.0000 C   0  0  0  0  0  0  0  0  0  0  0  0
    1.7309   -0.5082    0.0000 C   0  0  0  0  0  0  0  0  0  0  0  0
    1.4289    1.4438    0.0000 C   0  0  0  0  0  0  0  0  0  0  0  0
    0.7145    1.8563    0.0000 C   0  0  0  0  0  0  0  0  0  0  0  0
    0.7145    2.6813    0.0000 C   0  0  0  0  0  0  0  0  0  0  0  0
    0.7145    3.5062    0.0000 C   0  0  0  0  0  0  0  0  0  0  0  0
    1.5395    2.6813    0.0000 C   0  0  0  0  0  0  0  0  0  0  0  0
   -0.1105    2.6813    0.0000 C   0  0  0  0  0  0  0  0  0  0  0  0
   -0.0000    1.4438    0.0000 C   0  0  0  0  0  0  0  0  0  0  0  0
   -0.0000    0.6188    0.0000 C   0  0  0  0  0  0  0  0  0  0  0  0
   -0.7145    0.2063    0.0000 C   0  0  0  0  0  0  0  0  0  0  0  0
  1  2  1  0  0  0  0
  2  3  1  0  0  0  0
  3  4  1  0  0  0  0
  4  5  1  0  0  0  0
  5  6  1  0  0  0  0
  7  6  2  0  0  0  0
  7  8  1  0  0  0  0
  8  9  1  0  0  0  0
  8 10  1  0  0  0  0
  8 11  1  0  0  0  0
 12  7  1  0  0  0  0
 13 12  2  0  0  0  0
 13 14  1  0  0  0  0
 14 15  1  0  0  0  0
 14 16  1  0  0  0  0
 14 17  1  0  0  0  0
 18 13  1  0  0  0  0
 19 18  2  0  0  0  0
  6 19  1  0  0  0  0
 19 20  1  0  0  0  0
  4 21  1  0  0  0  0
 21 22  1  0  0  0  0
 23 22  2  0  0  0  0
 23 24  1  0  0  0  0
 24 25  1  0  0  0  0
 24 26  1  0  0  0  0
 24 27  1  0  0  0  0
 28 23  1  0  0  0  0
 29 28  2  0  0  0  0
 29 30  1  0  0  0  0
 30 31  1  0  0  0  0
 30 32  1  0  0  0  0
 30 33  1  0  0  0  0
 34 29  1  0  0  0  0
 35 34  2  0  0  0  0
 22 35  1  0  0  0  0
 35 36  1  0  0  0  0
M  END
> <RowID>
29

> <Original_SMILES>
CCOP(OC1=C(C=C(C=C1C)C(C)(C)C)C(C)(C)C)OC1=C(C=C(C=C1C)C(C)(C)C)C(C)(C)C

> <Canonical_QSARr>
CCOP(OC1=C(C=C(C=C1C)C(C)(C)C)C(C)(C)C)OC1=C(C=C(C=C1C)C(C)(C)C)C(C)(C)C

> <InChI_Code_QSARr>
InChI=1S/C32H51O3P/c1-16-33-36(34-27-21(2)17-23(29(4,5)6)19-25(27)31(10,11)12)35-28-22(3)18-24(30(7,8)9)20-26(28)32(13,14)15/h17-20H,16H2,1-15H3

> <InChI Key_QSARr>
ZEFSGHVBJCEKAZ-UHFFFAOYSA-N

> <Salt_Solvent>


> <Salt_Solvent_ID>
0

> <Number of connected components>
1

$$$$
Molecule_30
  Mrv2316 01072400032D          

 23 25  0  0  0  0            999 V2000
   -0.1243   -6.6000    0.0000 O   0  5  0  0  0  0  0  0  0  0  0  0
    0.5902   -6.1875    0.0000 N   0  3  0  0  0  0  0  0  0  0  0  0
    1.3047   -6.6000    0.0000 O   0  0  0  0  0  0  0  0  0  0  0  0
    0.5902   -5.3625    0.0000 C   0  0  0  0  0  0  0  0  0  0  0  0
    1.3047   -4.9500    0.0000 C   0  0  0  0  0  0  0  0  0  0  0  0
    1.3047   -4.1250    0.0000 C   0  0  0  0  0  0  0  0  0  0  0  0
    2.0192   -3.7125    0.0000 Cl  0  0  0  0  0  0  0  0  0  0  0  0
    0.5902   -3.7125    0.0000 C   0  0  0  0  0  0  0  0  0  0  0  0
    0.5902   -2.8875    0.0000 N   0  0  0  0  0  0  0  0  0  0  0  0
    1.3047   -2.4750    0.0000 N   0  0  0  0  0  0  0  0  0  0  0  0
    1.3047   -1.6500    0.0000 C   0  0  0  0  0  0  0  0  0  0  0  0
    0.5902   -1.2375    0.0000 C   0  0  0  0  0  0  0  0  0  0  0  0
   -0.1243   -1.6500    0.0000 O   0  0  0  0  0  0  0  0  0  0  0  0
    0.5902   -0.4125    0.0000 C   0  0  0  0  0  0  0  0  0  0  0  0
    1.3047   -0.0000    0.0000 C   0  0  0  0  0  0  0  0  0  0  0  0
    2.0192   -0.4125    0.0000 C   0  0  0  0  0  0  0  0  0  0  0  0
    2.7336    0.0000    0.0000 C   0  0  0  0  0  0  0  0  0  0  0  0
    3.4481   -0.4125    0.0000 C   0  0  0  0  0  0  0  0  0  0  0  0
    3.4481   -1.2375    0.0000 C   0  0  0  0  0  0  0  0  0  0  0  0
    2.7336   -1.6500    0.0000 C   0  0  0  0  0  0  0  0  0  0  0  0
    2.0192   -1.2375    0.0000 C   0  0  0  0  0  0  0  0  0  0  0  0
   -0.1243   -4.1250    0.0000 C   0  0  0  0  0  0  0  0  0  0  0  0
   -0.1243   -4.9500    0.0000 C   0  0  0  0  0  0  0  0  0  0  0  0
  1  2  1  0  0  0  0
  2  3  2  0  0  0  0
  2  4  1  0  0  0  0
  5  4  1  0  0  0  0
  6  5  2  0  0  0  0
  6  7  1  0  0  0  0
  8  6  1  0  0  0  0
  9  8  1  4  0  0  0
  9 10  2  0  0  0  0
 10 11  1  0  0  0  0
 12 11  2  0  0  0  0
 12 13  1  0  0  0  0
 14 12  1  0  0  0  0
 15 14  2  0  0  0  0
 16 15  1  0  0  0  0
 16 17  1  0  0  0  0
 17 18  2  0  0  0  0
 18 19  1  0  0  0  0
 19 20  2  0  0  0  0
 20 21  1  0  0  0  0
 11 21  1  0  0  0  0
 21 16  2  0  0  0  0
 22  8  2  0  0  0  0
 23 22  1  0  0  0  0
  4 23  2  0  0  0  0
M  CHG  2   1  -1   2   1
M  END
> <RowID>
30

> <Original_SMILES>
[O-][N+](=O)C1C=C(Cl)C(=CC=1)N=NC1=C(O)C=CC2C=CC=CC=21

> <Canonical_QSARr>
[O-][N+](=O)C1C=C(Cl)C(=CC=1)N=NC1=C(O)C=CC2C=CC=CC=21

> <InChI_Code_QSARr>
InChI=1S/C16H10ClN3O3/c17-13-9-11(20(22)23)6-7-14(13)18-19-16-12-4-2-1-3-10(12)5-8-15(16)21/h1-9,21H

> <InChI Key_QSARr>
XLTMWFMRJZDFFD-UHFFFAOYSA-N

> <Salt_Solvent>


> <Salt_Solvent_ID>
0

> <Number of connected components>
1

$$$$
Molecule_31
  Mrv2316 01072400032D          

 62 66  0  0  0  0            999 V2000
   10.9360   -0.7917    0.0000 C   0  0  0  0  0  0  0  0  0  0  0  0
   10.2215   -0.3792    0.0000 C   0  0  0  0  0  0  0  0  0  0  0  0
    9.5071   -0.7917    0.0000 O   0  0  0  0  0  0  0  0  0  0  0  0
   10.2215    0.4458    0.0000 C   0  0  0  0  0  0  0  0  0  0  0  0
    9.5071    0.8583    0.0000 N   0  0  0  0  0  0  0  0  0  0  0  0
    9.5071    1.6833    0.0000 N   0  0  0  0  0  0  0  0  0  0  0  0
    8.7926    2.0958    0.0000 C   0  0  0  0  0  0  0  0  0  0  0  0
    8.7926    2.9208    0.0000 C   0  0  0  0  0  0  0  0  0  0  0  0
    8.0781    3.3333    0.0000 C   0  0  0  0  0  0  0  0  0  0  0  0
    8.0781    4.1583    0.0000 C   0  0  0  0  0  0  0  0  0  0  0  0
    8.7926    4.5708    0.0000 O   0  0  0  0  0  0  0  0  0  0  0  0
    7.3637    4.5708    0.0000 N   0  0  0  0  0  0  0  0  0  0  0  0
    7.3637    5.3958    0.0000 C   0  0  0  0  0  0  0  0  0  0  0  0
    8.0781    5.8083    0.0000 C   0  0  0  0  0  0  0  0  0  0  0  0
    8.0781    6.6333    0.0000 C   0  0  0  0  0  0  0  0  0  0  0  0
    8.7926    7.0458    0.0000 Cl  0  0  0  0  0  0  0  0  0  0  0  0
    7.3637    7.0458    0.0000 C   0  0  0  0  0  0  0  0  0  0  0  0
    6.6492    6.6333    0.0000 C   0  0  0  0  0  0  0  0  0  0  0  0
    6.6492    5.8083    0.0000 C   0  0  0  0  0  0  0  0  0  0  0  0
    5.9347    5.3958    0.0000 C   0  0  0  0  0  0  0  0  0  0  0  0
    7.3637    2.9208    0.0000 C   0  0  0  0  0  0  0  0  0  0  0  0
    7.3637    2.0958    0.0000 C   0  0  0  0  0  0  0  0  0  0  0  0
    8.0781    1.6833    0.0000 C   0  0  0  0  0  0  0  0  0  0  0  0
    8.0781    0.8583    0.0000 Cl  0  0  0  0  0  0  0  0  0  0  0  0
   10.9360    0.8583    0.0000 C   0  0  0  0  0  0  0  0  0  0  0  0
   10.9360    1.6833    0.0000 O   0  0  0  0  0  0  0  0  0  0  0  0
   11.6505    0.4458    0.0000 N   0  0  0  0  0  0  0  0  0  0  0  0
   12.3650    0.8583    0.0000 C   0  0  0  0  0  0  0  0  0  0  0  0
   13.0794    0.4458    0.0000 C   0  0  0  0  0  0  0  0  0  0  0  0
   13.7939    0.8583    0.0000 C   0  0  0  0  0  0  0  0  0  0  0  0
   14.5084    0.4458    0.0000 Cl  0  0  0  0  0  0  0  0  0  0  0  0
   13.7939    1.6833    0.0000 C   0  0  0  0  0  0  0  0  0  0  0  0
   14.5084    2.0958    0.0000 N   0  0  0  0  0  0  0  0  0  0  0  0
   14.5084    2.9208    0.0000 C   0  0  0  0  0  0  0  0  0  0  0  0
   13.7939    3.3333    0.0000 O   0  0  0  0  0  0  0  0  0  0  0  0
   15.2228    3.3333    0.0000 C   0  0  0  0  0  0  0  0  0  0  0  0
   15.2228    4.1583    0.0000 N   0  0  0  0  0  0  0  0  0  0  0  0
   15.9373    4.5708    0.0000 N   0  0  0  0  0  0  0  0  0  0  0  0
   15.9373    5.3958    0.0000 C   0  0  0  0  0  0  0  0  0  0  0  0
   15.2228    5.8083    0.0000 C   0  0  0  0  0  0  0  0  0  0  0  0
   15.2228    6.6333    0.0000 C   0  0  0  0  0  0  0  0  0  0  0  0
   14.5084    7.0458    0.0000 C   0  0  0  0  0  0  0  0  0  0  0  0
   13.7939    6.6333    0.0000 O   0  0  0  0  0  0  0  0  0  0  0  0
   14.5084    7.8708    0.0000 N   0  0  0  0  0  0  0  0  0  0  0  0
   13.7939    8.2833    0.0000 C   0  0  0  0  0  0  0  0  0  0  0  0
   13.7939    9.1083    0.0000 C   0  0  0  0  0  0  0  0  0  0  0  0
   13.0794    9.5208    0.0000 C   0  0  0  0  0  0  0  0  0  0  0  0
   13.0794   10.3458    0.0000 Cl  0  0  0  0  0  0  0  0  0  0  0  0
   12.3650    9.1083    0.0000 C   0  0  0  0  0  0  0  0  0  0  0  0
   12.3650    8.2833    0.0000 C   0  0  0  0  0  0  0  0  0  0  0  0
   13.0794    7.8708    0.0000 C   0  0  0  0  0  0  0  0  0  0  0  0
   13.0794    7.0458    0.0000 C   0  0  0  0  0  0  0  0  0  0  0  0
   15.9373    7.0458    0.0000 C   0  0  0  0  0  0  0  0  0  0  0  0
   16.6518    6.6333    0.0000 C   0  0  0  0  0  0  0  0  0  0  0  0
   16.6518    5.8083    0.0000 C   0  0  0  0  0  0  0  0  0  0  0  0
   17.3663    5.3958    0.0000 Cl  0  0  0  0  0  0  0  0  0  0  0  0
   15.9373    2.9208    0.0000 C   0  0  0  0  0  0  0  0  0  0  0  0
   16.6518    3.3333    0.0000 C   0  0  0  0  0  0  0  0  0  0  0  0
   15.9373    2.0958    0.0000 O   0  0  0  0  0  0  0  0  0  0  0  0
   13.0794    2.0958    0.0000 C   0  0  0  0  0  0  0  0  0  0  0  0
   12.3650    1.6833    0.0000 C   0  0  0  0  0  0  0  0  0  0  0  0
   11.6505    2.0958    0.0000 Cl  0  0  0  0  0  0  0  0  0  0  0  0
  1  2  1  0  0  0  0
  2  3  2  0  0  0  0
  2  4  1  0  0  0  0
  5  4  1  4  0  0  0
  5  6  2  0  0  0  0
  6  7  1  0  0  0  0
  8  7  1  0  0  0  0
  9  8  2  0  0  0  0
  9 10  1  0  0  0  0
 10 11  2  0  0  0  0
 10 12  1  0  0  0  0
 12 13  1  0  0  0  0
 14 13  2  0  0  0  0
 15 14  1  0  0  0  0
 15 16  1  0  0  0  0
 17 15  2  0  0  0  0
 18 17  1  0  0  0  0
 19 18  2  0  0  0  0
 13 19  1  0  0  0  0
 19 20  1  0  0  0  0
 21  9  1  0  0  0  0
 22 21  2  0  0  0  0
 23 22  1  0  0  0  0
  7 23  2  0  0  0  0
 23 24  1  0  0  0  0
  4 25  1  0  0  0  0
 25 26  2  0  0  0  0
 25 27  1  0  0  0  0
 27 28  1  0  0  0  0
 29 28  2  0  0  0  0
 30 29  1  0  0  0  0
 30 31  1  0  0  0  0
 32 30  2  0  0  0  0
 32 33  1  0  0  0  0
 33 34  1  0  0  0  0
 34 35  2  0  0  0  0
 34 36  1  0  0  0  0
 37 36  1  4  0  0  0
 37 38  2  0  0  0  0
 38 39  1  0  0  0  0
 40 39  1  0  0  0  0
 41 40  2  0  0  0  0
 41 42  1  0  0  0  0
 42 43  2  0  0  0  0
 42 44  1  0  0  0  0
 44 45  1  0  0  0  0
 46 45  2  0  0  0  0
 47 46  1  0  0  0  0
 47 48  1  0  0  0  0
 49 47  2  0  0  0  0
 50 49  1  0  0  0  0
 51 50  2  0  0  0  0
 45 51  1  0  0  0  0
 51 52  1  0  0  0  0
 53 41  1  0  0  0  0
 54 53  2  0  0  0  0
 55 54  1  0  0  0  0
 39 55  2  0  0  0  0
 55 56  1  0  0  0  0
 36 57  1  0  0  0  0
 57 58  1  0  0  0  0
 57 59  2  0  0  0  0
 60 32  1  0  0  0  0
 61 60  2  0  0  0  0
 28 61  1  0  0  0  0
 61 62  1  0  0  0  0
M  END
> <RowID>
31

> <Original_SMILES>
CC(=O)C(N=NC1C=C(C=CC=1Cl)C(=O)NC1=CC(Cl)=CC=C1C)C(=O)NC1=CC(Cl)=C(C=C1Cl)NC(=O)C(N=NC1C=C(C=CC=1Cl)C(=O)NC1=CC(Cl)=CC=C1C)C(C)=O

> <Canonical_QSARr>
CC(=O)C(N=NC1C=C(C=CC=1Cl)C(=O)NC1=CC(Cl)=CC=C1C)C(=O)NC1=CC(Cl)=C(C=C1Cl)NC(=O)C(N=NC1C=C(C=CC=1Cl)C(=O)NC1=CC(Cl)=CC=C1C)C(C)=O

> <InChI_Code_QSARr>
InChI=1S/C42H32Cl6N8O6/c1-19-5-9-25(43)15-31(19)49-39(59)23-7-11-27(45)35(13-23)53-55-37(21(3)57)41(61)51-33-17-30(48)34(18-29(33)47)52-42(62)38(22(4)58)56-54-36-14-24(8-12-28(36)46)40(60)50-32-16-26(44)10-6-20(32)2/h5-18,37-38H,1-4H3,(H,49,59)(H,50,60)(H,51,61)(H,52,62)

> <InChI Key_QSARr>
ADHAFJLXGIAZAN-UHFFFAOYSA-N

> <Salt_Solvent>


> <Salt_Solvent_ID>
0

> <Number of connected components>
1

$$$$
Molecule_32
  Mrv2316 01072400032D          

 13 13  0  0  0  0            999 V2000
    0.0000   -3.4904    0.0000 C   0  0  0  0  0  0  0  0  0  0  0  0
    0.7145   -3.0779    0.0000 C   0  0  0  0  0  0  0  0  0  0  0  0
    1.4289   -3.4904    0.0000 C   0  0  0  0  0  0  0  0  0  0  0  0
    2.1434   -3.0779    0.0000 O   0  0  0  0  0  0  0  0  0  0  0  0
    2.8579   -3.4904    0.0000 C   0  0  0  0  0  0  0  0  0  0  0  0
    2.8579   -4.3154    0.0000 O   0  0  0  0  0  0  0  0  0  0  0  0
    3.5724   -3.0779    0.0000 C   0  0  0  0  0  0  0  0  0  0  0  0
    4.2868   -3.4904    0.0000 C   0  0  0  0  0  0  0  0  0  0  0  0
    5.0013   -3.0779    0.0000 C   0  0  0  0  0  0  0  0  0  0  0  0
    5.0013   -2.2529    0.0000 C   0  0  0  0  0  0  0  0  0  0  0  0
    5.7158   -1.8404    0.0000 O   0  0  0  0  0  0  0  0  0  0  0  0
    4.2868   -1.8404    0.0000 C   0  0  0  0  0  0  0  0  0  0  0  0
    3.5724   -2.2529    0.0000 C   0  0  0  0  0  0  0  0  0  0  0  0
  1  2  1  0  0  0  0
  2  3  1  0  0  0  0
  3  4  1  0  0  0  0
  4  5  1  0  0  0  0
  5  6  2  0  0  0  0
  5  7  1  0  0  0  0
  8  7  1  0  0  0  0
  9  8  2  0  0  0  0
 10  9  1  0  0  0  0
 10 11  1  0  0  0  0
 12 10  2  0  0  0  0
 13 12  1  0  0  0  0
  7 13  2  0  0  0  0
M  END
> <RowID>
32

> <Original_SMILES>
CCCOC(=O)C1C=CC(O)=CC=1

> <Canonical_QSARr>
CCCOC(=O)C1C=CC(O)=CC=1

> <InChI_Code_QSARr>
InChI=1S/C10H12O3/c1-2-7-13-10(12)8-3-5-9(11)6-4-8/h3-6,11H,2,7H2,1H3

> <InChI Key_QSARr>
QELSKZZBTMNZEB-UHFFFAOYSA-N

> <Salt_Solvent>


> <Salt_Solvent_ID>
0

> <Number of connected components>
1

$$$$
Molecule_33
  Mrv2316 01072400032D          

 27 26  0  0  0  0            999 V2000
    3.2408   -3.0789    0.0000 O   0  0  0  0  0  0  0  0  0  0  0  0
    2.5263   -2.6664    0.0000 C   0  0  0  0  0  0  0  0  0  0  0  0
    2.5263   -1.8414    0.0000 O   0  0  0  0  0  0  0  0  0  0  0  0
    1.8118   -3.0789    0.0000 C   0  0  0  0  0  0  0  0  0  0  0  0
    1.0974   -2.6664    0.0000 N   0  0  0  0  0  0  0  0  0  0  0  0
    0.3829   -3.0789    0.0000 C   0  0  0  0  0  0  0  0  0  0  0  0
   -0.3316   -2.6664    0.0000 C   0  0  0  0  0  0  0  0  0  0  0  0
   -1.0460   -3.0789    0.0000 N   0  0  0  0  0  0  0  0  0  0  0  0
   -1.0460   -3.9039    0.0000 C   0  0  0  0  0  0  0  0  0  0  0  0
   -0.3316   -4.3164    0.0000 C   0  0  0  0  0  0  0  0  0  0  0  0
    0.3829   -3.9039    0.0000 O   0  0  0  0  0  0  0  0  0  0  0  0
   -0.3316   -5.1414    0.0000 O   0  0  0  0  0  0  0  0  0  0  0  0
   -1.7605   -2.6664    0.0000 C   0  0  0  0  0  0  0  0  0  0  0  0
   -2.4750   -3.0789    0.0000 C   0  0  0  0  0  0  0  0  0  0  0  0
   -3.1895   -2.6664    0.0000 N   0  0  0  0  0  0  0  0  0  0  0  0
   -3.9039   -3.0789    0.0000 C   0  0  0  0  0  0  0  0  0  0  0  0
   -4.6184   -2.6664    0.0000 C   0  0  0  0  0  0  0  0  0  0  0  0
   -5.3329   -3.0789    0.0000 O   0  0  0  0  0  0  0  0  0  0  0  0
   -4.6184   -1.8414    0.0000 O   0  0  0  0  0  0  0  0  0  0  0  0
   -3.1895   -1.8414    0.0000 C   0  0  0  0  0  0  0  0  0  0  0  0
   -2.4750   -1.4289    0.0000 C   0  0  0  0  0  0  0  0  0  0  0  0
   -2.4750   -0.6039    0.0000 O   0  0  0  0  0  0  0  0  0  0  0  0
   -1.7605   -1.8414    0.0000 O   0  0  0  0  0  0  0  0  0  0  0  0
    1.0974   -1.8414    0.0000 C   0  0  0  0  0  0  0  0  0  0  0  0
    0.3829   -1.4289    0.0000 C   0  0  0  0  0  0  0  0  0  0  0  0
   -0.3316   -1.8414    0.0000 O   0  0  0  0  0  0  0  0  0  0  0  0
    0.3829   -0.6039    0.0000 O   0  0  0  0  0  0  0  0  0  0  0  0
  1  2  1  0  0  0  0
  2  3  2  0  0  0  0
  2  4  1  0  0  0  0
  4  5  1  0  0  0  0
  5  6  1  0  0  0  0
  6  7  1  0  0  0  0
  7  8  1  0  0  0  0
  8  9  1  0  0  0  0
  9 10  1  0  0  0  0
 10 11  1  0  0  0  0
 10 12  2  0  0  0  0
  8 13  1  0  0  0  0
 13 14  1  0  0  0  0
 14 15  1  0  0  0  0
 15 16  1  0  0  0  0
 16 17  1  0  0  0  0
 17 18  1  0  0  0  0
 17 19  2  0  0  0  0
 15 20  1  0  0  0  0
 20 21  1  0  0  0  0
 21 22  1  0  0  0  0
 21 23  2  0  0  0  0
  5 24  1  0  0  0  0
 24 25  1  0  0  0  0
 25 26  2  0  0  0  0
 25 27  1  0  0  0  0
M  END
> <RowID>
33

> <Original_SMILES>
[K+].[Fe+3].[O-]C(=O)CN(CCN(CC(O)=O)CC([O-])=O)CCN(CC([O-])=O)CC([O-])=O

> <Canonical_QSARr>
OC(=O)CN(CCN(CC(O)=O)CC(O)=O)CCN(CC(O)=O)CC(O)=O

> <InChI_Code_QSARr>
InChI=1S/C14H23N3O10/c18-10(19)5-15(1-3-16(6-11(20)21)7-12(22)23)2-4-17(8-13(24)25)9-14(26)27/h1-9H2,(H,18,19)(H,20,21)(H,22,23)(H,24,25)(H,26,27)

> <InChI Key_QSARr>
QPCDCPDFJACHGM-UHFFFAOYSA-N

> <Salt_Solvent>
[K+].[Fe+3]

> <Salt_Solvent_ID>
225

> <Number of connected components>
3

$$$$
Molecule_34
  Mrv2316 01072400032D          

 11 11  0  0  0  0            999 V2000
   -0.0000   -0.7500    0.0000 O   0  5  0  0  0  0  0  0  0  0  0  0
    0.7145   -0.3375    0.0000 N   0  3  0  0  0  0  0  0  0  0  0  0
    1.4289   -0.7500    0.0000 O   0  0  0  0  0  0  0  0  0  0  0  0
    0.7145    0.4875    0.0000 C   0  0  0  0  0  0  0  0  0  0  0  0
    1.4289    0.9000    0.0000 C   0  0  0  0  0  0  0  0  0  0  0  0
    1.4289    1.7250    0.0000 C   0  0  0  0  0  0  0  0  0  0  0  0
    0.7145    2.1375    0.0000 C   0  0  0  0  0  0  0  0  0  0  0  0
    0.7145    2.9625    0.0000 Cl  0  0  0  0  0  0  0  0  0  0  0  0
   -0.0000    1.7250    0.0000 C   0  0  0  0  0  0  0  0  0  0  0  0
   -0.0000    0.9000    0.0000 C   0  0  0  0  0  0  0  0  0  0  0  0
   -0.7145    0.4875    0.0000 Cl  0  0  0  0  0  0  0  0  0  0  0  0
  1  2  1  0  0  0  0
  2  3  2  0  0  0  0
  2  4  1  0  0  0  0
  5  4  2  0  0  0  0
  6  5  1  0  0  0  0
  7  6  2  0  0  0  0
  7  8  1  0  0  0  0
  9  7  1  0  0  0  0
 10  9  2  0  0  0  0
  4 10  1  0  0  0  0
 10 11  1  0  0  0  0
M  CHG  2   1  -1   2   1
M  END
> <RowID>
34

> <Original_SMILES>
[O-][N+](=O)C1=CC=C(Cl)C=C1Cl

> <Canonical_QSARr>
[O-][N+](=O)C1=CC=C(Cl)C=C1Cl

> <InChI_Code_QSARr>
InChI=1S/C6H3Cl2NO2/c7-4-1-2-6(9(10)11)5(8)3-4/h1-3H

> <InChI Key_QSARr>
QUIMTLZDMCNYGY-UHFFFAOYSA-N

> <Salt_Solvent>


> <Salt_Solvent_ID>
0

> <Number of connected components>
1

$$$$
Molecule_35
  Mrv2316 01072400032D          

 11 10  0  0  0  0            999 V2000
    4.2355    3.2704    0.0000 C   0  0  0  0  0  0  0  0  0  0  0  0
    4.9500    2.8579    0.0000 C   0  0  0  0  0  0  0  0  0  0  0  0
    5.6645    3.2704    0.0000 C   0  0  0  0  0  0  0  0  0  0  0  0
    6.3789    2.8579    0.0000 C   0  0  0  0  0  0  0  0  0  0  0  0
    7.0934    3.2704    0.0000 O   0  0  0  0  0  0  0  0  0  0  0  0
    7.8079    2.8579    0.0000 C   0  0  0  0  0  0  0  0  0  0  0  0
    8.5224    3.2704    0.0000 O   0  0  0  0  0  0  0  0  0  0  0  0
    9.2368    2.8579    0.0000 C   0  0  0  0  0  0  0  0  0  0  0  0
    9.9513    3.2704    0.0000 C   0  0  0  0  0  0  0  0  0  0  0  0
   10.6658    2.8579    0.0000 C   0  0  0  0  0  0  0  0  0  0  0  0
   11.3802    3.2704    0.0000 C   0  0  0  0  0  0  0  0  0  0  0  0
  1  2  1  0  0  0  0
  2  3  1  0  0  0  0
  3  4  1  0  0  0  0
  4  5  1  0  0  0  0
  5  6  1  0  0  0  0
  6  7  1  0  0  0  0
  7  8  1  0  0  0  0
  8  9  1  0  0  0  0
  9 10  1  0  0  0  0
 10 11  1  0  0  0  0
M  END
> <RowID>
35

> <Original_SMILES>
CCCCOCOCCCC

> <Canonical_QSARr>
CCCCOCOCCCC

> <InChI_Code_QSARr>
InChI=1S/C9H20O2/c1-3-5-7-10-9-11-8-6-4-2/h3-9H2,1-2H3

> <InChI Key_QSARr>
QLCJOAMJPCOIDI-UHFFFAOYSA-N

> <Salt_Solvent>


> <Salt_Solvent_ID>
0

> <Number of connected components>
1

$$$$
Molecule_36
  Mrv2316 01072400032D          

 11 10  0  0  0  0            999 V2000
    2.2836    2.1434    0.0000 C   0  0  0  0  0  0  0  0  0  0  0  0
    2.9980    2.5559    0.0000 C   0  0  0  0  0  0  0  0  0  0  0  0
    3.7125    2.1434    0.0000 C   0  0  0  0  0  0  0  0  0  0  0  0
    4.4270    2.5559    0.0000 C   0  0  0  0  0  0  0  0  0  0  0  0
    5.1414    2.1434    0.0000 C   0  0  0  0  0  0  0  0  0  0  0  0
    5.8559    2.5559    0.0000 C   0  0  0  0  0  0  0  0  0  0  0  0
    5.8559    3.3809    0.0000 O   0  0  0  0  0  0  0  0  0  0  0  0
    6.5704    2.1434    0.0000 O   0  0  0  0  0  0  0  0  0  0  0  0
    7.2849    2.5559    0.0000 C   0  0  0  0  0  0  0  0  0  0  0  0
    7.9993    2.1434    0.0000 C   0  0  0  0  0  0  0  0  0  0  0  0
    8.7138    2.5559    0.0000 C   0  0  0  0  0  0  0  0  0  0  0  0
  1  2  1  0  0  0  0
  2  3  1  0  0  0  0
  3  4  1  0  0  0  0
  4  5  1  0  0  0  0
  5  6  1  0  0  0  0
  6  7  2  0  0  0  0
  6  8  1  0  0  0  0
  8  9  1  0  0  0  0
  9 10  1  0  0  0  0
 10 11  2  0  0  0  0
M  END
> <RowID>
36

> <Original_SMILES>
CCCCCC(=O)OCC=C

> <Canonical_QSARr>
CCCCCC(=O)OCC=C

> <InChI_Code_QSARr>
InChI=1S/C9H16O2/c1-3-5-6-7-9(10)11-8-4-2/h4H,2-3,5-8H2,1H3

> <InChI Key_QSARr>
RCSBILYQLVXLJG-UHFFFAOYSA-N

> <Salt_Solvent>


> <Salt_Solvent_ID>
0

> <Number of connected components>
1

$$$$
Molecule_38
  Mrv2316 01072400032D          

 23 25  0  0  0  0            999 V2000
   -0.5770   -5.7836    0.0000 C   0  0  0  0  0  0  0  0  0  0  0  0
   -0.5771   -4.9586    0.0000 C   0  0  0  0  0  0  0  0  0  0  0  0
    0.2479   -4.9585    0.0000 C   0  0  0  0  0  0  0  0  0  0  0  0
   -1.4021   -4.9586    0.0000 C   0  0  0  0  0  0  0  0  0  0  0  0
   -0.5771   -4.1336    0.0000 O   0  0  0  0  0  0  0  0  0  0  0  0
    0.1373   -3.7210    0.0000 C   0  0  0  0  0  0  0  0  0  0  0  0
    0.8518   -4.1335    0.0000 O   0  0  0  0  0  0  0  0  0  0  0  0
    0.1373   -2.8960    0.0000 N   0  0  0  0  0  0  0  0  0  0  0  0
    0.8517   -2.4835    0.0000 C   0  0  0  0  0  0  0  0  0  0  0  0
    1.5662   -2.8960    0.0000 C   0  0  0  0  0  0  0  0  0  0  0  0
    2.2807   -2.4834    0.0000 O   0  0  0  0  0  0  0  0  0  0  0  0
    1.5663   -3.7210    0.0000 O   0  0  0  0  0  0  0  0  0  0  0  0
    0.8517   -1.6585    0.0000 C   0  0  0  0  0  0  0  0  0  0  0  0
    0.1163   -2.0322    0.0000 C   0  0  0  0  0  0  0  0  0  0  0  0
    0.5657   -1.2419    0.0000 C   0  0  0  0  0  0  0  0  0  0  0  0
   -0.2319   -1.0310    0.0000 O   0  0  0  0  0  0  0  0  0  0  0  0
    1.3012   -1.6156    0.0000 C   0  0  0  0  0  0  0  0  0  0  0  0
    2.0368   -1.2419    0.0000 C   0  0  0  0  0  0  0  0  0  0  0  0
    1.5873   -2.0322    0.0000 C   0  0  0  0  0  0  0  0  0  0  0  0
    2.0368   -0.4945    0.0000 C   0  0  0  0  0  0  0  0  0  0  0  0
    1.3012   -0.1208    0.0000 C   0  0  0  0  0  0  0  0  0  0  0  0
    0.5657   -0.4945    0.0000 C   0  0  0  0  0  0  0  0  0  0  0  0
    0.8517   -0.9111    0.0000 C   0  0  0  0  0  0  0  0  0  0  0  0
  1  2  1  0  0  0  0
  2  3  1  0  0  0  0
  2  4  1  0  0  0  0
  2  5  1  0  0  0  0
  5  6  1  0  0  0  0
  6  7  2  0  0  0  0
  6  8  1  0  0  0  0
  8  9  1  0  0  0  0
  9 10  1  0  0  0  0
 10 11  1  0  0  0  0
 10 12  2  0  0  0  0
  9 13  1  0  0  0  0
 14 13  1  0  0  0  0
 15 14  1  0  0  0  0
 15 16  1  0  0  0  0
 15 17  1  0  0  0  0
 17 18  1  0  0  0  0
 18 19  1  0  0  0  0
 19 13  1  0  0  0  0
 23 21  1  0  0  0  0
 20 21  1  0  0  0  0
 21 22  1  0  0  0  0
 22 15  1  0  0  0  0
 18 20  1  0  0  0  0
 13 23  1  0  0  0  0
M  END
> <RowID>
38

> <Original_SMILES>
CC(C)(C)OC(=O)NC(C(O)=O)C12CC3(O)CC(C1)CC(C3)C2

> <Canonical_QSARr>
CC(C)(C)OC(=O)NC(C(O)=O)C12CC3(O)CC(C1)CC(C3)C2

> <InChI_Code_QSARr>
InChI=1S/C17H27NO5/c1-15(2,3)23-14(21)18-12(13(19)20)16-5-10-4-11(6-16)8-17(22,7-10)9-16/h10-12,22H,4-9H2,1-3H3,(H,18,21)(H,19,20)

> <InChI Key_QSARr>
UKCKDSNFBFHSHC-UHFFFAOYSA-N

> <Salt_Solvent>


> <Salt_Solvent_ID>
0

> <Number of connected components>
1

$$$$
Molecule_39
  Mrv2316 01072400032D          

 39 44  0  0  0  0            999 V2000
    5.0013   -0.4125    0.0000 S   0  0  0  0  0  0  0  0  0  0  0  0
    5.0013   -1.2375    0.0000 C   0  0  0  0  0  0  0  0  0  0  0  0
    4.2868   -1.6500    0.0000 C   0  0  0  0  0  0  0  0  0  0  0  0
    4.2868   -2.4750    0.0000 C   0  0  0  0  0  0  0  0  0  0  0  0
    5.0013   -2.8875    0.0000 C   0  0  0  0  0  0  0  0  0  0  0  0
    5.7158   -2.4750    0.0000 C   0  0  0  0  0  0  0  0  0  0  0  0
    5.7158   -1.6500    0.0000 C   0  0  0  0  0  0  0  0  0  0  0  0
    4.2868    0.0000    0.0000 C   0  0  0  0  0  0  0  0  0  0  0  0
    4.2868    0.8250    0.0000 C   0  0  0  0  0  0  0  0  0  0  0  0
    3.5724    1.2375    0.0000 C   0  0  0  0  0  0  0  0  0  0  0  0
    2.8579    0.8250    0.0000 C   0  0  0  0  0  0  0  0  0  0  0  0
    2.1434    1.2375    0.0000 S   0  0  0  0  0  0  0  0  0  0  0  0
    1.4290    0.8250    0.0000 C   0  0  0  0  0  0  0  0  0  0  0  0
    0.7145    1.2375    0.0000 C   0  0  0  0  0  0  0  0  0  0  0  0
    0.0000    0.8250    0.0000 C   0  0  0  0  0  0  0  0  0  0  0  0
    0.0000   -0.0000    0.0000 C   0  0  0  0  0  0  0  0  0  0  0  0
   -0.7145   -0.4125    0.0000 S   0  0  0  0  0  0  0  0  0  0  0  0
   -0.7145   -1.2375    0.0000 C   0  0  0  0  0  0  0  0  0  0  0  0
   -1.4289   -1.6500    0.0000 C   0  0  0  0  0  0  0  0  0  0  0  0
   -1.4289   -2.4750    0.0000 C   0  0  0  0  0  0  0  0  0  0  0  0
   -0.7145   -2.8875    0.0000 C   0  0  0  0  0  0  0  0  0  0  0  0
    0.0000   -2.4750    0.0000 C   0  0  0  0  0  0  0  0  0  0  0  0
    0.0000   -1.6500    0.0000 C   0  0  0  0  0  0  0  0  0  0  0  0
   -1.4289   -0.0000    0.0000 C   0  0  0  0  0  0  0  0  0  0  0  0
   -1.4289    0.8250    0.0000 C   0  0  0  0  0  0  0  0  0  0  0  0
   -2.1434    1.2375    0.0000 C   0  0  0  0  0  0  0  0  0  0  0  0
   -2.8579    0.8250    0.0000 C   0  0  0  0  0  0  0  0  0  0  0  0
   -2.8579   -0.0000    0.0000 C   0  0  0  0  0  0  0  0  0  0  0  0
   -2.1434   -0.4125    0.0000 C   0  0  0  0  0  0  0  0  0  0  0  0
    0.7145   -0.4125    0.0000 C   0  0  0  0  0  0  0  0  0  0  0  0
    1.4290    0.0000    0.0000 C   0  0  0  0  0  0  0  0  0  0  0  0
    2.8579    0.0000    0.0000 C   0  0  0  0  0  0  0  0  0  0  0  0
    3.5724   -0.4125    0.0000 C   0  0  0  0  0  0  0  0  0  0  0  0
    5.7158    0.0000    0.0000 C   0  0  0  0  0  0  0  0  0  0  0  0
    6.4303   -0.4125    0.0000 C   0  0  0  0  0  0  0  0  0  0  0  0
    7.1447    0.0000    0.0000 C   0  0  0  0  0  0  0  0  0  0  0  0
    7.1447    0.8250    0.0000 C   0  0  0  0  0  0  0  0  0  0  0  0
    6.4303    1.2375    0.0000 C   0  0  0  0  0  0  0  0  0  0  0  0
    5.7158    0.8250    0.0000 C   0  0  0  0  0  0  0  0  0  0  0  0
  1  2  1  0  0  0  0
  3  2  2  0  0  0  0
  4  3  1  0  0  0  0
  5  4  2  0  0  0  0
  6  5  1  0  0  0  0
  7  6  2  0  0  0  0
  2  7  1  0  0  0  0
  1  8  1  0  0  0  0
  9  8  2  0  0  0  0
 10  9  1  0  0  0  0
 11 10  2  0  0  0  0
 11 12  1  0  0  0  0
 12 13  1  0  0  0  0
 14 13  1  0  0  0  0
 15 14  2  0  0  0  0
 16 15  1  0  0  0  0
 16 17  1  0  0  0  0
 17 18  1  0  0  0  0
 19 18  2  0  0  0  0
 20 19  1  0  0  0  0
 21 20  2  0  0  0  0
 22 21  1  0  0  0  0
 23 22  2  0  0  0  0
 18 23  1  0  0  0  0
 17 24  1  0  0  0  0
 25 24  2  0  0  0  0
 26 25  1  0  0  0  0
 27 26  2  0  0  0  0
 28 27  1  0  0  0  0
 29 28  2  0  0  0  0
 24 29  1  0  0  0  0
 30 16  2  0  0  0  0
 31 30  1  0  0  0  0
 13 31  2  0  0  0  0
 32 11  1  0  0  0  0
 33 32  2  0  0  0  0
  8 33  1  0  0  0  0
  1 34  1  0  0  0  0
 35 34  2  0  0  0  0
 36 35  1  0  0  0  0
 37 36  2  0  0  0  0
 38 37  1  0  0  0  0
 39 38  2  0  0  0  0
 34 39  1  0  0  0  0
M  END
> <RowID>
39

> <Original_SMILES>
F[Sb-](F)(F)(F)(F)F.F[Sb-](F)(F)(F)(F)F.C1=CC(=CC=C1[S+](C1C=CC=CC=1)C1C=CC=CC=1)SC1C=CC(=CC=1)[S+](C1C=CC=CC=1)C1C=CC=CC=1

> <Canonical_QSARr>
C1=CC(=CC=C1S(C1C=CC=CC=1)C1C=CC=CC=1)SC1C=CC(=CC=1)S(C1C=CC=CC=1)C1C=CC=CC=1

> <InChI_Code_QSARr>
InChI=1S/C36H30S3/c1-5-13-31(14-6-1)38(32-15-7-2-8-16-32)35-25-21-29(22-26-35)37-30-23-27-36(28-24-30)39(33-17-9-3-10-18-33)34-19-11-4-12-20-34/h1-28,38-39H

> <InChI Key_QSARr>
WUVYJAUXONODQI-UHFFFAOYSA-N

> <Salt_Solvent>
F[Sb-](F)(F)(F)(F)F

> <Salt_Solvent_ID>
3156

> <Number of connected components>
3

$$$$
Molecule_40
  Mrv2316 01072400032D          

 24 23  0  0  0  0            999 V2000
   11.6605    7.5572    0.0000 O   0  0  0  0  0  0  0  0  0  0  0  0
   12.3750    7.1447    0.0000 C   0  0  0  0  0  0  0  0  0  0  0  0
   12.3750    6.3197    0.0000 O   0  0  0  0  0  0  0  0  0  0  0  0
   13.0895    7.5572    0.0000 C   0  0  0  0  0  0  0  0  0  0  0  0
   13.8039    7.1447    0.0000 C   0  0  0  0  0  0  0  0  0  0  0  0
   14.5184    7.5572    0.0000 C   0  0  0  0  0  0  0  0  0  0  0  0
   15.2329    7.1447    0.0000 C   0  0  0  0  0  0  0  0  0  0  0  0
   15.9473    7.5572    0.0000 C   0  0  0  0  0  0  0  0  0  0  0  0
   16.6618    7.1447    0.0000 C   0  0  0  0  0  0  0  0  0  0  0  0
   17.3763    7.5572    0.0000 C   0  0  0  0  0  0  0  0  0  0  0  0
   18.0908    7.1447    0.0000 C   0  0  0  0  0  0  0  0  0  0  0  0
   18.8052    7.5572    0.0000 C   0  0  0  0  0  0  0  0  0  0  0  0
   19.5197    7.1447    0.0000 C   0  0  0  0  0  0  0  0  0  0  0  0
   20.2342    7.5572    0.0000 C   0  0  0  0  0  0  0  0  0  0  0  0
   20.9486    7.1447    0.0000 C   0  0  0  0  0  0  0  0  0  0  0  0
   21.6631    7.5572    0.0000 C   0  0  0  0  0  0  0  0  0  0  0  0
   22.3776    7.1447    0.0000 C   0  0  0  0  0  0  0  0  0  0  0  0
   23.0921    7.5572    0.0000 C   0  0  0  0  0  0  0  0  0  0  0  0
   23.8065    7.1447    0.0000 C   0  0  0  0  0  0  0  0  0  0  0  0
   24.5210    7.5572    0.0000 C   0  0  0  0  0  0  0  0  0  0  0  0
   25.2355    7.1447    0.0000 C   0  0  0  0  0  0  0  0  0  0  0  0
   25.9499    7.5572    0.0000 C   0  0  0  0  0  0  0  0  0  0  0  0
   26.6644    7.1447    0.0000 C   0  0  0  0  0  0  0  0  0  0  0  0
   27.3789    7.5572    0.0000 C   0  0  0  0  0  0  0  0  0  0  0  0
  1  2  1  0  0  0  0
  2  3  2  0  0  0  0
  2  4  1  0  0  0  0
  4  5  1  0  0  0  0
  5  6  1  0  0  0  0
  6  7  1  0  0  0  0
  7  8  1  0  0  0  0
  8  9  1  0  0  0  0
  9 10  1  0  0  0  0
 10 11  1  0  0  0  0
 11 12  1  0  0  0  0
 12 13  1  0  0  0  0
 13 14  1  0  0  0  0
 14 15  1  0  0  0  0
 15 16  1  0  0  0  0
 16 17  1  0  0  0  0
 17 18  1  0  0  0  0
 18 19  1  0  0  0  0
 19 20  1  0  0  0  0
 20 21  1  0  0  0  0
 21 22  1  0  0  0  0
 22 23  1  0  0  0  0
 23 24  1  0  0  0  0
M  END
> <RowID>
40

> <Original_SMILES>
[Ca+2].CCCCCCCCCCCCCCCCCCCCCC([O-])=O.CCCCCCCCCCCCCCCCCCCCCC([O-])=O

> <Canonical_QSARr>
CCCCCCCCCCCCCCCCCCCCCC(O)=O

> <InChI_Code_QSARr>
InChI=1S/C22H44O2/c1-2-3-4-5-6-7-8-9-10-11-12-13-14-15-16-17-18-19-20-21-22(23)24/h2-21H2,1H3,(H,23,24)

> <InChI Key_QSARr>
UKMSUNONTOPOIO-UHFFFAOYSA-N

> <Salt_Solvent>
[Ca+2]

> <Salt_Solvent_ID>
200

> <Number of connected components>
3

$$$$
Molecule_41
  Mrv2316 01072400032D          

  7  6  0  0  0  0            999 V2000
   -0.1914    0.7145    0.0000 N   0  0  0  0  0  0  0  0  0  0  0  0
    0.5230    1.1270    0.0000 C   0  0  0  0  0  0  0  0  0  0  0  0
    1.2375    0.7145    0.0000 C   0  0  0  0  0  0  0  0  0  0  0  0
    1.9520    1.1270    0.0000 C   0  0  0  0  0  0  0  0  0  0  0  0
    2.6664    0.7145    0.0000 C   0  0  0  0  0  0  0  0  0  0  0  0
    3.3809    1.1270    0.0000 O   0  0  0  0  0  0  0  0  0  0  0  0
    2.6664   -0.1105    0.0000 O   0  0  0  0  0  0  0  0  0  0  0  0
  1  2  1  0  0  0  0
  2  3  1  0  0  0  0
  3  4  1  0  0  0  0
  4  5  1  0  0  0  0
  5  6  1  0  0  0  0
  5  7  2  0  0  0  0
M  END
> <RowID>
41

> <Original_SMILES>
NCCCC(O)=O

> <Canonical_QSARr>
NCCCC(O)=O

> <InChI_Code_QSARr>
InChI=1S/C4H9NO2/c5-3-1-2-4(6)7/h1-3,5H2,(H,6,7)

> <InChI Key_QSARr>
BTCSSZJGUNDROE-UHFFFAOYSA-N

> <Salt_Solvent>


> <Salt_Solvent_ID>
0

> <Number of connected components>
1

$$$$
Molecule_42
  Mrv2316 01072400032D          

 31 35  0  0  0  0            999 V2000
   -2.3113    0.8128    0.0000 C   0  0  0  0  0  0  0  0  0  0  0  0
   -2.0310    0.0369    0.0000 C   0  0  0  0  0  0  0  0  0  0  0  0
   -2.5628   -0.5938    0.0000 C   0  0  0  0  0  0  0  0  0  0  0  0
   -2.2825   -1.3698    0.0000 C   0  0  0  0  0  0  0  0  0  0  0  0
   -1.4704   -1.5150    0.0000 C   0  0  0  0  0  0  0  0  0  0  0  0
   -1.1901   -2.2909    0.0000 S   0  0  0  0  0  0  0  0  0  0  0  0
   -1.9660   -2.5712    0.0000 O   0  0  0  0  0  0  0  0  0  0  0  0
   -0.4141   -2.0106    0.0000 O   0  0  0  0  0  0  0  0  0  0  0  0
   -0.9098   -3.0668    0.0000 O   0  0  0  0  0  0  0  0  0  0  0  0
   -0.0977   -3.2120    0.0000 C   0  0  0  0  0  0  0  0  0  0  0  0
    0.1826   -3.9880    0.0000 C   0  0  0  0  0  0  0  0  0  0  0  0
    0.9948   -4.1332    0.0000 C   0  0  0  0  0  0  0  0  0  0  0  0
    1.5266   -3.5025    0.0000 C   0  0  0  0  0  0  0  0  0  0  0  0
    1.8069   -4.2784    0.0000 C   0  0  0  0  0  0  0  0  0  0  0  0
    2.3387   -3.6477    0.0000 C   0  0  0  0  0  0  0  0  0  0  0  0
    2.6190   -4.4236    0.0000 C   0  0  0  0  0  0  0  0  0  0  0  0
    3.4311   -4.5688    0.0000 C   0  0  0  0  0  0  0  0  0  0  0  0
    3.9629   -3.9381    0.0000 C   0  0  0  0  0  0  0  0  0  0  0  0
    4.3228   -4.6805    0.0000 C   0  0  0  0  0  0  0  0  0  0  0  0
    3.6826   -3.1622    0.0000 C   0  0  0  0  0  0  0  0  0  0  0  0
    4.3340   -2.6558    0.0000 C   0  0  0  0  0  0  0  0  0  0  0  0
    5.0168   -3.1188    0.0000 C   0  0  0  0  0  0  0  0  0  0  0  0
    4.7875   -3.9113    0.0000 C   0  0  0  0  0  0  0  0  0  0  0  0
    5.2939   -4.5626    0.0000 O   0  0  0  0  0  0  0  0  0  0  0  0
    2.8705   -3.0170    0.0000 C   0  0  0  0  0  0  0  0  0  0  0  0
    2.5902   -2.2410    0.0000 C   0  0  0  0  0  0  0  0  0  0  0  0
    1.7781   -2.0958    0.0000 C   0  0  0  0  0  0  0  0  0  0  0  0
    1.2463   -2.7265    0.0000 C   0  0  0  0  0  0  0  0  0  0  0  0
    0.4342   -2.5813    0.0000 C   0  0  0  0  0  0  0  0  0  0  0  0
   -0.9385   -0.8843    0.0000 C   0  0  0  0  0  0  0  0  0  0  0  0
   -1.2188   -0.1083    0.0000 C   0  0  0  0  0  0  0  0  0  0  0  0
  1  2  1  0  0  0  0
  3  2  1  0  0  0  0
  4  3  2  0  0  0  0
  5  4  1  0  0  0  0
  5  6  1  0  0  0  0
  6  7  2  0  0  0  0
  6  8  2  0  0  0  0
  6  9  1  0  0  0  0
  9 10  1  0  0  0  0
 11 10  1  0  0  0  0
 12 11  1  0  0  0  0
 13 12  1  0  0  0  0
 13 14  1  0  0  0  0
 13 15  1  0  0  0  0
 16 15  1  0  0  0  0
 17 16  1  0  0  0  0
 18 17  1  0  0  0  0
 18 19  1  0  0  0  0
 18 20  1  0  0  0  0
 20 21  1  0  0  0  0
 21 22  1  0  0  0  0
 22 23  1  0  0  0  0
 23 18  1  0  0  0  0
 23 24  2  0  0  0  0
 25 20  1  0  0  0  0
 15 25  1  0  0  0  0
 25 26  1  0  0  0  0
 26 27  1  0  0  0  0
 27 28  1  0  0  0  0
 28 13  1  0  0  0  0
 29 28  1  0  0  0  0
 10 29  1  0  0  0  0
 30  5  2  0  0  0  0
 31 30  1  0  0  0  0
  2 31  2  0  0  0  0
M  END
> <RowID>
42

> <Original_SMILES>
CC1C=CC(=CC=1)S(=O)(=O)OC1CCC2(C)C3CCC4(C)C(CCC4=O)C3CCC2C1

> <Canonical_QSARr>
CC1C=CC(=CC=1)S(=O)(=O)OC1CCC2(C)C3CCC4(C)C(CCC4=O)C3CCC2C1

> <InChI_Code_QSARr>
InChI=1S/C26H36O4S/c1-17-4-7-20(8-5-17)31(28,29)30-19-12-14-25(2)18(16-19)6-9-21-22-10-11-24(27)26(22,3)15-13-23(21)25/h4-5,7-8,18-19,21-23H,6,9-16H2,1-3H3

> <InChI Key_QSARr>
HNTMKSKJRZRWKS-UHFFFAOYSA-N

> <Salt_Solvent>


> <Salt_Solvent_ID>
0

> <Number of connected components>
1

$$$$
Molecule_43
  Mrv2316 01072400032D          

 13 13  0  0  0  0            999 V2000
    0.1099   -1.2058    0.0000 C   0  0  0  0  0  0  0  0  0  0  0  0
    0.8244   -0.7933    0.0000 O   0  0  0  0  0  0  0  0  0  0  0  0
    0.8244    0.0317    0.0000 C   0  0  0  0  0  0  0  0  0  0  0  0
    1.5389    0.4442    0.0000 C   0  0  0  0  0  0  0  0  0  0  0  0
    1.5389    1.2692    0.0000 C   0  0  0  0  0  0  0  0  0  0  0  0
    0.8244    1.6817    0.0000 C   0  0  0  0  0  0  0  0  0  0  0  0
    0.8244    2.5067    0.0000 O   0  0  0  0  0  0  0  0  0  0  0  0
    0.1099    2.9192    0.0000 C   0  0  0  0  0  0  0  0  0  0  0  0
    0.1099    1.2692    0.0000 C   0  0  0  0  0  0  0  0  0  0  0  0
    0.1099    0.4442    0.0000 C   0  0  0  0  0  0  0  0  0  0  0  0
   -0.6046    0.0317    0.0000 N   0  3  0  0  0  0  0  0  0  0  0  0
   -0.6046   -0.7933    0.0000 O   0  5  0  0  0  0  0  0  0  0  0  0
   -1.3190    0.4442    0.0000 O   0  0  0  0  0  0  0  0  0  0  0  0
  1  2  1  0  0  0  0
  2  3  1  0  0  0  0
  4  3  1  0  0  0  0
  5  4  2  0  0  0  0
  6  5  1  0  0  0  0
  6  7  1  0  0  0  0
  7  8  1  0  0  0  0
  9  6  2  0  0  0  0
 10  9  1  0  0  0  0
  3 10  2  0  0  0  0
 10 11  1  0  0  0  0
 11 12  1  0  0  0  0
 11 13  2  0  0  0  0
M  CHG  2  11   1  12  -1
M  END
> <RowID>
43

> <Original_SMILES>
COC1C=CC(=CC=1[N+]([O-])=O)OC

> <Canonical_QSARr>
COC1C=CC(=CC=1[N+]([O-])=O)OC

> <InChI_Code_QSARr>
InChI=1S/C8H9NO4/c1-12-6-3-4-8(13-2)7(5-6)9(10)11/h3-5H,1-2H3

> <InChI Key_QSARr>
UPTOWXNJLZJTGD-UHFFFAOYSA-N

> <Salt_Solvent>


> <Salt_Solvent_ID>
0

> <Number of connected components>
1

$$$$
Molecule_44
  Mrv2316 01072400032D          

 14 15  0  0  0  0            999 V2000
    0.7145   -6.0696    0.0000 N   0  0  0  0  0  0  0  0  0  0  0  0
    0.7145   -5.2446    0.0000 C   0  0  0  0  0  0  0  0  0  0  0  0
    0.7145   -4.4196    0.0000 C   0  0  0  0  0  0  0  0  0  0  0  0
    1.4289   -4.0071    0.0000 C   0  0  0  0  0  0  0  0  0  0  0  0
    1.4289   -3.1821    0.0000 C   0  0  0  0  0  0  0  0  0  0  0  0
    0.7145   -2.7696    0.0000 C   0  0  0  0  0  0  0  0  0  0  0  0
    0.7145   -1.9446    0.0000 C   0  0  0  0  0  0  0  0  0  0  0  0
    1.4289   -1.5321    0.0000 C   0  0  0  0  0  0  0  0  0  0  0  0
    1.4289   -0.7071    0.0000 C   0  0  0  0  0  0  0  0  0  0  0  0
    0.7145   -0.2946    0.0000 C   0  0  0  0  0  0  0  0  0  0  0  0
    0.0000   -0.7071    0.0000 C   0  0  0  0  0  0  0  0  0  0  0  0
    0.0000   -1.5321    0.0000 C   0  0  0  0  0  0  0  0  0  0  0  0
    0.0000   -3.1821    0.0000 C   0  0  0  0  0  0  0  0  0  0  0  0
    0.0000   -4.0071    0.0000 C   0  0  0  0  0  0  0  0  0  0  0  0
  1  2  3  0  0  0  0
  2  3  1  0  0  0  0
  4  3  1  0  0  0  0
  5  4  2  0  0  0  0
  6  5  1  0  0  0  0
  6  7  1  0  0  0  0
  8  7  1  0  0  0  0
  9  8  2  0  0  0  0
 10  9  1  0  0  0  0
 11 10  2  0  0  0  0
 12 11  1  0  0  0  0
  7 12  2  0  0  0  0
 13  6  2  0  0  0  0
 14 13  1  0  0  0  0
  3 14  2  0  0  0  0
M  END
> <RowID>
44

> <Original_SMILES>
N#CC1C=CC(=CC=1)C1C=CC=CC=1

> <Canonical_QSARr>
N#CC1C=CC(=CC=1)C1C=CC=CC=1

> <InChI_Code_QSARr>
InChI=1S/C13H9N/c14-10-11-6-8-13(9-7-11)12-4-2-1-3-5-12/h1-9H

> <InChI Key_QSARr>
BPMBNLJJRKCCRT-UHFFFAOYSA-N

> <Salt_Solvent>


> <Salt_Solvent_ID>
0

> <Number of connected components>
1

$$$$
Molecule_45
  Mrv2316 01072400032D          

 11 11  0  0  0  0            999 V2000
    0.7145   -1.8375    0.0000 C   0  0  0  0  0  0  0  0  0  0  0  0
    0.7145   -1.0125    0.0000 C   0  0  0  0  0  0  0  0  0  0  0  0
    1.4289   -0.6000    0.0000 C   0  0  0  0  0  0  0  0  0  0  0  0
    1.4289    0.2250    0.0000 C   0  0  0  0  0  0  0  0  0  0  0  0
    0.7145    0.6375    0.0000 C   0  0  0  0  0  0  0  0  0  0  0  0
    0.7145    1.4625    0.0000 C   0  0  0  0  0  0  0  0  0  0  0  0
   -0.0000    1.8750    0.0000 C   0  0  0  0  0  0  0  0  0  0  0  0
    1.4289    1.8750    0.0000 C   0  0  0  0  0  0  0  0  0  0  0  0
   -0.0000    0.2250    0.0000 C   0  0  0  0  0  0  0  0  0  0  0  0
   -0.0000   -0.6000    0.0000 C   0  0  0  0  0  0  0  0  0  0  0  0
   -0.7145   -1.0125    0.0000 O   0  0  0  0  0  0  0  0  0  0  0  0
  1  2  1  0  0  0  0
  3  2  2  0  0  0  0
  4  3  1  0  0  0  0
  5  4  1  0  0  0  0
  5  6  1  0  0  0  0
  6  7  1  0  0  0  0
  6  8  2  0  0  0  0
  9  5  1  0  0  0  0
 10  9  1  0  0  0  0
  2 10  1  0  0  0  0
 10 11  2  0  0  0  0
M  END
> <RowID>
45

> <Original_SMILES>
CC1=CCC(CC1=O)C(C)=C

> <Canonical_QSARr>
CC1=CCC(CC1=O)C(C)=C

> <InChI_Code_QSARr>
InChI=1S/C10H14O/c1-7(2)9-5-4-8(3)10(11)6-9/h4,9H,1,5-6H2,2-3H3

> <InChI Key_QSARr>
ULDHMXUKGWMISQ-UHFFFAOYSA-N

> <Salt_Solvent>


> <Salt_Solvent_ID>
0

> <Number of connected components>
1

$$$$
Molecule_46
  Mrv2316 01072400032D          

 15 14  0  0  0  0            999 V2000
    0.1105    0.4125    0.0000 C   0  0  0  0  0  0  0  0  0  0  0  0
    0.8250   -0.0000    0.0000 C   0  0  0  0  0  0  0  0  0  0  0  0
    1.5395    0.4125    0.0000 C   0  0  0  0  0  0  0  0  0  0  0  0
    2.2540    0.8250    0.0000 C   0  0  0  0  0  0  0  0  0  0  0  0
    2.9684    0.4125    0.0000 O   0  0  0  0  0  0  0  0  0  0  0  0
    1.9520   -0.3020    0.0000 C   0  0  0  0  0  0  0  0  0  0  0  0
    1.5395   -1.0165    0.0000 O   0  0  0  0  0  0  0  0  0  0  0  0
    1.9520   -1.7309    0.0000 C   0  0  0  0  0  0  0  0  0  0  0  0
    1.5395   -2.4454    0.0000 C   0  0  0  0  0  0  0  0  0  0  0  0
    1.9520   -3.1599    0.0000 C   0  0  0  0  0  0  0  0  0  0  0  0
    1.1270    1.1270    0.0000 C   0  0  0  0  0  0  0  0  0  0  0  0
    1.5395    1.8414    0.0000 O   0  0  0  0  0  0  0  0  0  0  0  0
    1.1270    2.5559    0.0000 C   0  0  0  0  0  0  0  0  0  0  0  0
    1.5395    3.2704    0.0000 C   0  0  0  0  0  0  0  0  0  0  0  0
    1.1270    3.9848    0.0000 C   0  0  0  0  0  0  0  0  0  0  0  0
  1  2  1  0  0  0  0
  2  3  1  0  0  0  0
  3  4  1  0  0  0  0
  4  5  1  0  0  0  0
  3  6  1  0  0  0  0
  6  7  1  0  0  0  0
  7  8  1  0  0  0  0
  8  9  1  0  0  0  0
  9 10  2  0  0  0  0
  3 11  1  0  0  0  0
 11 12  1  0  0  0  0
 12 13  1  0  0  0  0
 13 14  1  0  0  0  0
 14 15  2  0  0  0  0
M  END
> <RowID>
46

> <Original_SMILES>
CCC(CO)(COCC=C)COCC=C

> <Canonical_QSARr>
CCC(CO)(COCC=C)COCC=C

> <InChI_Code_QSARr>
InChI=1S/C12H22O3/c1-4-7-14-10-12(6-3,9-13)11-15-8-5-2/h4-5,13H,1-2,6-11H2,3H3

> <InChI Key_QSARr>
BDKDHWOPFRTWPP-UHFFFAOYSA-N

> <Salt_Solvent>


> <Salt_Solvent_ID>
0

> <Number of connected components>
1

$$$$
Molecule_47
  Mrv2316 01072400032D          

 20 19  0  0  0  0            999 V2000
    5.3328   -2.5854    0.0000 O   0  0  0  0  0  0  0  0  0  0  0  0
    4.5226   -2.7413    0.0000 C   0  0  0  0  0  0  0  0  0  0  0  0
    4.2526   -3.5209    0.0000 O   0  0  0  0  0  0  0  0  0  0  0  0
    3.9825   -2.1177    0.0000 C   0  0  0  0  0  0  0  0  0  0  0  0
    4.2526   -1.3381    0.0000 N   0  0  0  0  0  0  0  0  0  0  0  0
    3.7125   -0.7145    0.0000 C   0  0  0  0  0  0  0  0  0  0  0  0
    2.9024   -0.8704    0.0000 C   0  0  0  0  0  0  0  0  0  0  0  0
    2.6323   -1.6499    0.0000 O   0  0  0  0  0  0  0  0  0  0  0  0
    2.3623   -0.2467    0.0000 O   0  0  0  0  0  0  0  0  0  0  0  0
    5.0627   -1.1822    0.0000 C   0  0  0  0  0  0  0  0  0  0  0  0
    5.3328   -0.4027    0.0000 C   0  0  0  0  0  0  0  0  0  0  0  0
    6.1429   -0.2467    0.0000 N   0  0  0  0  0  0  0  0  0  0  0  0
    6.4129    0.5328    0.0000 C   0  0  0  0  0  0  0  0  0  0  0  0
    5.8729    1.1564    0.0000 C   0  0  0  0  0  0  0  0  0  0  0  0
    6.1429    1.9360    0.0000 O   0  0  0  0  0  0  0  0  0  0  0  0
    5.0627    1.0005    0.0000 O   0  0  0  0  0  0  0  0  0  0  0  0
    6.6830   -0.8704    0.0000 C   0  0  0  0  0  0  0  0  0  0  0  0
    7.4931   -0.7145    0.0000 C   0  0  0  0  0  0  0  0  0  0  0  0
    7.7632    0.0651    0.0000 O   0  0  0  0  0  0  0  0  0  0  0  0
    8.0332   -1.3381    0.0000 O   0  0  0  0  0  0  0  0  0  0  0  0
  1  2  1  0  0  0  0
  2  3  2  0  0  0  0
  2  4  1  0  0  0  0
  4  5  1  0  0  0  0
  5  6  1  0  0  0  0
  6  7  1  0  0  0  0
  7  8  1  0  0  0  0
  7  9  2  0  0  0  0
  5 10  1  0  0  0  0
 10 11  1  0  0  0  0
 11 12  1  0  0  0  0
 12 13  1  0  0  0  0
 13 14  1  0  0  0  0
 14 15  1  0  0  0  0
 14 16  2  0  0  0  0
 12 17  1  0  0  0  0
 17 18  1  0  0  0  0
 18 19  1  0  0  0  0
 18 20  2  0  0  0  0
M  END
> <RowID>
47

> <Original_SMILES>
[Na+].[Na+].[Ca+2].[O-]C(=O)CN(CC([O-])=O)CCN(CC([O-])=O)CC([O-])=O

> <Canonical_QSARr>
OC(=O)CN(CC(O)=O)CCN(CC(O)=O)CC(O)=O

> <InChI_Code_QSARr>
InChI=1S/C10H16N2O8/c13-7(14)3-11(4-8(15)16)1-2-12(5-9(17)18)6-10(19)20/h1-6H2,(H,13,14)(H,15,16)(H,17,18)(H,19,20)

> <InChI Key_QSARr>
KCXVZYZYPLLWCC-UHFFFAOYSA-N

> <Salt_Solvent>
[Na+].[Ca+2]

> <Salt_Solvent_ID>
155

> <Number of connected components>
4

$$$$
Molecule_48
  Mrv2316 01072400032D          

 26 28  0  0  0  0            999 V2000
   -1.4289   -8.1865    0.0000 C   0  0  0  0  0  0  0  0  0  0  0  0
   -1.4289   -7.3615    0.0000 C   0  0  0  0  0  0  0  0  0  0  0  0
   -0.7145   -6.9490    0.0000 O   0  0  0  0  0  0  0  0  0  0  0  0
   -0.7145   -6.1240    0.0000 C   0  0  0  0  0  0  0  0  0  0  0  0
   -0.0000   -5.7115    0.0000 C   0  0  0  0  0  0  0  0  0  0  0  0
   -0.0000   -4.8865    0.0000 C   0  0  0  0  0  0  0  0  0  0  0  0
   -0.7145   -4.4740    0.0000 C   0  0  0  0  0  0  0  0  0  0  0  0
   -0.7145   -3.6490    0.0000 C   0  0  0  0  0  0  0  0  0  0  0  0
   -1.4289   -3.2365    0.0000 O   0  0  0  0  0  0  0  0  0  0  0  0
   -1.4289   -2.4115    0.0000 C   0  0  0  0  0  0  0  0  0  0  0  0
   -2.1434   -1.9990    0.0000 C   0  0  0  0  0  0  0  0  0  0  0  0
   -2.1434   -1.1740    0.0000 C   0  0  0  0  0  0  0  0  0  0  0  0
   -2.8579   -0.7615    0.0000 C   0  0  0  0  0  0  0  0  0  0  0  0
   -3.5724   -1.1740    0.0000 C   0  0  0  0  0  0  0  0  0  0  0  0
   -3.5724   -1.9990    0.0000 C   0  0  0  0  0  0  0  0  0  0  0  0
   -2.8579   -2.4115    0.0000 C   0  0  0  0  0  0  0  0  0  0  0  0
   -0.0000   -3.2365    0.0000 C   0  0  0  0  0  0  0  0  0  0  0  0
    0.7145   -3.6490    0.0000 C   0  0  0  0  0  0  0  0  0  0  0  0
    1.4289   -3.2365    0.0000 C   0  0  0  0  0  0  0  0  0  0  0  0
    2.1434   -3.6490    0.0000 Br  0  0  0  0  0  0  0  0  0  0  0  0
    1.4289   -2.4115    0.0000 C   0  0  0  0  0  0  0  0  0  0  0  0
    0.7145   -1.9990    0.0000 C   0  0  0  0  0  0  0  0  0  0  0  0
   -0.0000   -2.4115    0.0000 C   0  0  0  0  0  0  0  0  0  0  0  0
   -0.7145   -1.9990    0.0000 Cl  0  0  0  0  0  0  0  0  0  0  0  0
   -1.4289   -4.8865    0.0000 C   0  0  0  0  0  0  0  0  0  0  0  0
   -1.4289   -5.7115    0.0000 C   0  0  0  0  0  0  0  0  0  0  0  0
  1  2  1  0  0  0  0
  2  3  1  0  0  0  0
  3  4  1  0  0  0  0
  5  4  1  0  0  0  0
  6  5  2  0  0  0  0
  7  6  1  0  0  0  0
  7  8  1  0  0  0  0
  8  9  1  0  0  0  0
  9 10  1  0  0  0  0
 10 11  1  0  0  0  0
 12 11  1  0  0  0  0
 13 12  2  0  0  0  0
 14 13  1  0  0  0  0
 15 14  2  0  0  0  0
 16 15  1  0  0  0  0
 11 16  2  0  0  0  0
  8 17  1  0  0  0  0
 18 17  1  0  0  0  0
 19 18  2  0  0  0  0
 19 20  1  0  0  0  0
 21 19  1  0  0  0  0
 22 21  2  0  0  0  0
 23 22  1  0  0  0  0
 17 23  2  0  0  0  0
 23 24  1  0  0  0  0
 25  7  2  0  0  0  0
 26 25  1  0  0  0  0
  4 26  2  0  0  0  0
M  END
> <RowID>
48

> <Original_SMILES>
CCOC1C=CC(=CC=1)C(OCC1C=CC=CC=1)C1C=C(Br)C=CC=1Cl

> <Canonical_QSARr>
CCOC1C=CC(=CC=1)C(OCC1C=CC=CC=1)C1C=C(Br)C=CC=1Cl

> <InChI_Code_QSARr>
InChI=1S/C22H20BrClO2/c1-2-25-19-11-8-17(9-12-19)22(20-14-18(23)10-13-21(20)24)26-15-16-6-4-3-5-7-16/h3-14,22H,2,15H2,1H3

> <InChI Key_QSARr>
BCXSFFOHQBIFOM-UHFFFAOYSA-N

> <Salt_Solvent>


> <Salt_Solvent_ID>
0

> <Number of connected components>
1

$$$$
Molecule_49
  Mrv2316 01072400032D          

 17 18  0  0  0  0            999 V2000
    4.4549   -0.0000    0.0000 O   0  0  0  0  0  0  0  0  0  0  0  0
    3.7405   -0.4125    0.0000 C   0  0  0  0  0  0  0  0  0  0  0  0
    3.7405   -1.2375    0.0000 C   0  0  0  0  0  0  0  0  0  0  0  0
    4.4549   -1.6500    0.0000 C   0  0  0  0  0  0  0  0  0  0  0  0
    5.1694   -1.2375    0.0000 O   0  0  0  0  0  0  0  0  0  0  0  0
    4.4549   -2.4750    0.0000 C   0  0  0  0  0  0  0  0  0  0  0  0
    3.7405   -2.8875    0.0000 C   0  0  0  0  0  0  0  0  0  0  0  0
    3.7405   -3.7125    0.0000 C   0  0  0  0  0  0  0  0  0  0  0  0
    4.4549   -4.1250    0.0000 C   0  0  0  0  0  0  0  0  0  0  0  0
    5.1694   -3.7125    0.0000 C   0  0  0  0  0  0  0  0  0  0  0  0
    5.1694   -2.8875    0.0000 C   0  0  0  0  0  0  0  0  0  0  0  0
    3.0260   -0.0000    0.0000 C   0  0  0  0  0  0  0  0  0  0  0  0
    3.0260    0.8250    0.0000 C   0  0  0  0  0  0  0  0  0  0  0  0
    2.3115    1.2375    0.0000 C   0  0  0  0  0  0  0  0  0  0  0  0
    1.5971    0.8250    0.0000 C   0  0  0  0  0  0  0  0  0  0  0  0
    1.5971   -0.0000    0.0000 C   0  0  0  0  0  0  0  0  0  0  0  0
    2.3115   -0.4125    0.0000 C   0  0  0  0  0  0  0  0  0  0  0  0
  1  2  2  0  0  0  0
  2  3  1  0  0  0  0
  3  4  1  0  0  0  0
  4  5  2  0  0  0  0
  4  6  1  0  0  0  0
  7  6  1  0  0  0  0
  8  7  2  0  0  0  0
  9  8  1  0  0  0  0
 10  9  2  0  0  0  0
 11 10  1  0  0  0  0
  6 11  2  0  0  0  0
  2 12  1  0  0  0  0
 13 12  1  0  0  0  0
 14 13  2  0  0  0  0
 15 14  1  0  0  0  0
 16 15  2  0  0  0  0
 17 16  1  0  0  0  0
 12 17  2  0  0  0  0
M  END
> <RowID>
49

> <Original_SMILES>
O=C(CC(=O)C1C=CC=CC=1)C1C=CC=CC=1

> <Canonical_QSARr>
O=C(CC(=O)C1C=CC=CC=1)C1C=CC=CC=1

> <InChI_Code_QSARr>
InChI=1S/C15H12O2/c16-14(12-7-3-1-4-8-12)11-15(17)13-9-5-2-6-10-13/h1-10H,11H2

> <InChI Key_QSARr>
NZZIMKJIVMHWJC-UHFFFAOYSA-N

> <Salt_Solvent>


> <Salt_Solvent_ID>
0

> <Number of connected components>
1

$$$$
Molecule_50
  Mrv2316 01072400032D          

 13 13  0  0  0  0            999 V2000
    1.4289   -4.1250    0.0000 C   0  0  0  0  0  0  0  0  0  0  0  0
    2.1434   -4.5375    0.0000 C   0  0  0  0  0  0  0  0  0  0  0  0
    2.1434   -5.3625    0.0000 O   0  0  0  0  0  0  0  0  0  0  0  0
    2.8579   -4.1250    0.0000 O   0  0  0  0  0  0  0  0  0  0  0  0
    3.5724   -4.5375    0.0000 C   0  0  0  0  0  0  0  0  0  0  0  0
    4.2868   -4.1250    0.0000 C   0  0  0  0  0  0  0  0  0  0  0  0
    5.0013   -4.5375    0.0000 C   0  0  0  0  0  0  0  0  0  0  0  0
    5.7158   -4.1250    0.0000 C   0  0  0  0  0  0  0  0  0  0  0  0
    6.4302   -4.5375    0.0000 C   0  0  0  0  0  0  0  0  0  0  0  0
    7.1447   -4.1250    0.0000 C   0  0  0  0  0  0  0  0  0  0  0  0
    7.1447   -3.3000    0.0000 C   0  0  0  0  0  0  0  0  0  0  0  0
    6.4302   -2.8875    0.0000 C   0  0  0  0  0  0  0  0  0  0  0  0
    5.7158   -3.3000    0.0000 C   0  0  0  0  0  0  0  0  0  0  0  0
  1  2  1  0  0  0  0
  2  3  2  0  0  0  0
  2  4  1  0  0  0  0
  4  5  1  0  0  0  0
  5  6  1  0  0  0  0
  6  7  1  0  0  0  0
  7  8  1  0  0  0  0
  9  8  1  0  0  0  0
 10  9  2  0  0  0  0
 11 10  1  0  0  0  0
 12 11  2  0  0  0  0
 13 12  1  0  0  0  0
  8 13  2  0  0  0  0
M  END
> <RowID>
50

> <Original_SMILES>
CC(=O)OCCCC1C=CC=CC=1

> <Canonical_QSARr>
CC(=O)OCCCC1C=CC=CC=1

> <InChI_Code_QSARr>
InChI=1S/C11H14O2/c1-10(12)13-9-5-8-11-6-3-2-4-7-11/h2-4,6-7H,5,8-9H2,1H3

> <InChI Key_QSARr>
JRJGKUTZNBZHNK-UHFFFAOYSA-N

> <Salt_Solvent>


> <Salt_Solvent_ID>
0

> <Number of connected components>
1

$$$$
Molecule_51
  Mrv2316 01072400032D          

 10  9  0  0  0  0            999 V2000
    4.6184    2.6664    0.0000 N   0  0  0  0  0  0  0  0  0  0  0  0
    4.6184    1.8414    0.0000 C   0  0  0  0  0  0  0  0  0  0  0  0
    3.9039    1.4289    0.0000 C   0  0  0  0  0  0  0  0  0  0  0  0
    3.1895    1.8414    0.0000 C   0  0  0  0  0  0  0  0  0  0  0  0
    2.4750    1.4289    0.0000 C   0  0  0  0  0  0  0  0  0  0  0  0
    1.7605    1.8414    0.0000 O   0  0  0  0  0  0  0  0  0  0  0  0
    2.4750    0.6039    0.0000 O   0  0  0  0  0  0  0  0  0  0  0  0
    5.3329    1.4289    0.0000 C   0  0  0  0  0  0  0  0  0  0  0  0
    6.0474    1.8414    0.0000 O   0  0  0  0  0  0  0  0  0  0  0  0
    5.3329    0.6039    0.0000 O   0  0  0  0  0  0  0  0  0  0  0  0
  1  2  1  0  0  0  0
  2  3  1  0  0  0  0
  3  4  1  0  0  0  0
  4  5  1  0  0  0  0
  5  6  1  0  0  0  0
  5  7  2  0  0  0  0
  2  8  1  0  0  0  0
  8  9  1  0  0  0  0
  8 10  2  0  0  0  0
M  END
> <RowID>
51

> <Original_SMILES>
NC(CCC(O)=O)C(O)=O

> <Canonical_QSARr>
NC(CCC(O)=O)C(O)=O

> <InChI_Code_QSARr>
InChI=1S/C5H9NO4/c6-3(5(9)10)1-2-4(7)8/h3H,1-2,6H2,(H,7,8)(H,9,10)

> <InChI Key_QSARr>
WHUUTDBJXJRKMK-UHFFFAOYSA-N

> <Salt_Solvent>


> <Salt_Solvent_ID>
0

> <Number of connected components>
1

$$$$
Molecule_52
  Mrv2316 01072400032D          

 13 13  0  0  0  0            999 V2000
   -0.6046   -1.4279    0.0000 C   0  0  0  0  0  0  0  0  0  0  0  0
    0.1099   -1.0154    0.0000 C   0  0  0  0  0  0  0  0  0  0  0  0
    0.8244   -1.4279    0.0000 O   0  0  0  0  0  0  0  0  0  0  0  0
    0.1099   -0.1904    0.0000 C   0  0  0  0  0  0  0  0  0  0  0  0
    0.8244    0.2221    0.0000 C   0  0  0  0  0  0  0  0  0  0  0  0
    0.8244    1.0471    0.0000 C   0  0  0  0  0  0  0  0  0  0  0  0
    1.5389    1.4596    0.0000 C   0  0  0  0  0  0  0  0  0  0  0  0
    1.5389    2.2846    0.0000 C   0  0  0  0  0  0  0  0  0  0  0  0
    0.8244    2.6971    0.0000 C   0  0  0  0  0  0  0  0  0  0  0  0
    0.8244    3.5221    0.0000 O   0  0  0  0  0  0  0  0  0  0  0  0
    0.1099    3.9346    0.0000 C   0  0  0  0  0  0  0  0  0  0  0  0
    0.1099    2.2846    0.0000 C   0  0  0  0  0  0  0  0  0  0  0  0
    0.1099    1.4596    0.0000 C   0  0  0  0  0  0  0  0  0  0  0  0
  1  2  1  0  0  0  0
  2  3  2  0  0  0  0
  2  4  1  0  0  0  0
  4  5  1  0  0  0  0
  5  6  1  0  0  0  0
  7  6  2  0  0  0  0
  8  7  1  0  0  0  0
  9  8  2  0  0  0  0
  9 10  1  0  0  0  0
 10 11  1  0  0  0  0
 12  9  1  0  0  0  0
 13 12  2  0  0  0  0
  6 13  1  0  0  0  0
M  END
> <RowID>
52

> <Original_SMILES>
CC(=O)CCC1=CC=C(C=C1)OC

> <Canonical_QSARr>
CC(=O)CCC1=CC=C(C=C1)OC

> <InChI_Code_QSARr>
InChI=1S/C11H14O2/c1-9(12)3-4-10-5-7-11(13-2)8-6-10/h5-8H,3-4H2,1-2H3

> <InChI Key_QSARr>
PCBSXBYCASFXTM-UHFFFAOYSA-N

> <Salt_Solvent>


> <Salt_Solvent_ID>
0

> <Number of connected components>
1

$$$$
Molecule_53
  Mrv2316 01072400032D          

 28 29  0  0  0  0            999 V2000
    2.1434   -5.6571    0.0000 C   0  0  0  0  0  0  0  0  0  0  0  0
    1.4289   -5.2446    0.0000 C   0  0  0  0  0  0  0  0  0  0  0  0
    0.7145   -5.6571    0.0000 O   0  0  0  0  0  0  0  0  0  0  0  0
    1.4289   -4.4196    0.0000 C   0  0  0  0  0  0  0  0  0  0  0  0
    0.7145   -4.0071    0.0000 N   0  0  0  0  0  0  0  0  0  0  0  0
    0.7145   -3.1821    0.0000 N   0  0  0  0  0  0  0  0  0  0  0  0
    0.0000   -2.7696    0.0000 C   0  0  0  0  0  0  0  0  0  0  0  0
    0.0000   -1.9446    0.0000 C   0  0  0  0  0  0  0  0  0  0  0  0
   -0.7145   -1.5321    0.0000 C   0  0  0  0  0  0  0  0  0  0  0  0
   -1.4289   -1.9446    0.0000 C   0  0  0  0  0  0  0  0  0  0  0  0
   -2.1434   -1.5321    0.0000 O   0  0  0  0  0  0  0  0  0  0  0  0
   -2.8579   -1.9446    0.0000 C   0  0  0  0  0  0  0  0  0  0  0  0
   -1.4289   -2.7696    0.0000 C   0  0  0  0  0  0  0  0  0  0  0  0
   -0.7145   -3.1821    0.0000 C   0  0  0  0  0  0  0  0  0  0  0  0
   -0.7145   -4.0071    0.0000 N   0  3  0  0  0  0  0  0  0  0  0  0
    0.0000   -4.4196    0.0000 O   0  5  0  0  0  0  0  0  0  0  0  0
   -1.4289   -4.4196    0.0000 O   0  0  0  0  0  0  0  0  0  0  0  0
    2.1434   -4.0071    0.0000 C   0  0  0  0  0  0  0  0  0  0  0  0
    2.1434   -3.1821    0.0000 O   0  0  0  0  0  0  0  0  0  0  0  0
    2.8579   -4.4196    0.0000 N   0  0  0  0  0  0  0  0  0  0  0  0
    3.5724   -4.0071    0.0000 C   0  0  0  0  0  0  0  0  0  0  0  0
    4.2868   -4.4196    0.0000 C   0  0  0  0  0  0  0  0  0  0  0  0
    5.0013   -4.0071    0.0000 C   0  0  0  0  0  0  0  0  0  0  0  0
    5.0013   -3.1821    0.0000 C   0  0  0  0  0  0  0  0  0  0  0  0
    4.2868   -2.7696    0.0000 C   0  0  0  0  0  0  0  0  0  0  0  0
    3.5724   -3.1821    0.0000 C   0  0  0  0  0  0  0  0  0  0  0  0
    2.8579   -2.7696    0.0000 O   0  0  0  0  0  0  0  0  0  0  0  0
    2.8579   -1.9446    0.0000 C   0  0  0  0  0  0  0  0  0  0  0  0
  1  2  1  0  0  0  0
  2  3  2  0  0  0  0
  2  4  1  0  0  0  0
  5  4  1  4  0  0  0
  5  6  2  0  0  0  0
  6  7  1  0  0  0  0
  8  7  1  0  0  0  0
  9  8  2  0  0  0  0
 10  9  1  0  0  0  0
 10 11  1  0  0  0  0
 11 12  1  0  0  0  0
 13 10  2  0  0  0  0
 14 13  1  0  0  0  0
  7 14  2  0  0  0  0
 14 15  1  0  0  0  0
 15 16  1  0  0  0  0
 15 17  2  0  0  0  0
  4 18  1  0  0  0  0
 18 19  2  0  0  0  0
 18 20  1  0  0  0  0
 20 21  1  0  0  0  0
 22 21  1  0  0  0  0
 23 22  2  0  0  0  0
 24 23  1  0  0  0  0
 25 24  2  0  0  0  0
 26 25  1  0  0  0  0
 21 26  2  0  0  0  0
 26 27  1  0  0  0  0
 27 28  1  0  0  0  0
M  CHG  2  15   1  16  -1
M  END
> <RowID>
53

> <Original_SMILES>
CC(=O)C(N=NC1C=CC(=CC=1[N+]([O-])=O)OC)C(=O)NC1C=CC=CC=1OC

> <Canonical_QSARr>
CC(=O)C(N=NC1C=CC(=CC=1[N+]([O-])=O)OC)C(=O)NC1C=CC=CC=1OC

> <InChI_Code_QSARr>
InChI=1S/C18H18N4O6/c1-11(23)17(18(24)19-14-6-4-5-7-16(14)28-3)21-20-13-9-8-12(27-2)10-15(13)22(25)26/h4-10,17H,1-3H3,(H,19,24)

> <InChI Key_QSARr>
UFORAEIAYCSGCR-UHFFFAOYSA-N

> <Salt_Solvent>


> <Salt_Solvent_ID>
0

> <Number of connected components>
1

$$$$
Molecule_54
  Mrv2316 01072400032D          

 10 11  0  0  0  0            999 V2000
    2.6197    1.8975    0.0000 C   0  0  0  0  0  0  0  0  0  0  0  0
    1.9052    1.4850    0.0000 C   0  0  0  0  0  0  0  0  0  0  0  0
    1.1908    1.8975    0.0000 C   0  0  0  0  0  0  0  0  0  0  0  0
    0.4763    1.4850    0.0000 C   0  0  0  0  0  0  0  0  0  0  0  0
    0.4763    0.6600    0.0000 C   0  0  0  0  0  0  0  0  0  0  0  0
   -0.2382    1.0725    0.0000 C   0  0  0  0  0  0  0  0  0  0  0  0
   -0.9140    0.5993    0.0000 C   0  0  0  0  0  0  0  0  0  0  0  0
   -0.9140    1.5457    0.0000 C   0  0  0  0  0  0  0  0  0  0  0  0
    1.1908    0.2475    0.0000 C   0  0  0  0  0  0  0  0  0  0  0  0
    1.9052    0.6600    0.0000 C   0  0  0  0  0  0  0  0  0  0  0  0
  1  2  1  0  0  0  0
  3  2  1  0  0  0  0
  4  3  1  0  0  0  0
  4  5  1  0  0  0  0
  5  6  1  0  0  0  0
  6  4  1  0  0  0  0
  6  7  1  0  0  0  0
  6  8  1  0  0  0  0
  9  5  1  0  0  0  0
 10  9  1  0  0  0  0
  2 10  2  0  0  0  0
M  END
> <RowID>
54

> <Original_SMILES>
CC1CC2C(CC=1)C2(C)C

> <Canonical_QSARr>
CC1CC2C(CC=1)C2(C)C

> <InChI_Code_QSARr>
InChI=1S/C10H16/c1-7-4-5-8-9(6-7)10(8,2)3/h4,8-9H,5-6H2,1-3H3

> <InChI Key_QSARr>
BQOFWKZOCNGFEC-UHFFFAOYSA-N

> <Salt_Solvent>


> <Salt_Solvent_ID>
0

> <Number of connected components>
1

$$$$
Molecule_55
  Mrv2316 01072400032D          

 20 19  0  0  0  0            999 V2000
   -1.0974    1.0164    0.0000 O   0  0  0  0  0  0  0  0  0  0  0  0
   -0.3829    1.4289    0.0000 S   0  0  0  0  0  0  0  0  0  0  0  0
    0.0296    0.7144    0.0000 O   0  0  0  0  0  0  0  0  0  0  0  0
   -0.7954    2.1434    0.0000 O   0  0  0  0  0  0  0  0  0  0  0  0
    0.3316    1.8414    0.0000 C   0  0  0  0  0  0  0  0  0  0  0  0
    1.0461    1.4289    0.0000 N   0  0  0  0  0  0  0  0  0  0  0  0
    1.7605    1.8414    0.0000 C   0  0  0  0  0  0  0  0  0  0  0  0
    2.4750    1.4289    0.0000 C   0  0  0  0  0  0  0  0  0  0  0  0
    3.1895    1.8414    0.0000 C   0  0  0  0  0  0  0  0  0  0  0  0
    3.9039    1.4289    0.0000 C   0  0  0  0  0  0  0  0  0  0  0  0
    4.6184    1.8414    0.0000 C   0  0  0  0  0  0  0  0  0  0  0  0
    5.3329    1.4289    0.0000 C   0  0  0  0  0  0  0  0  0  0  0  0
    6.0474    1.8414    0.0000 N   0  0  0  0  0  0  0  0  0  0  0  0
    6.7618    1.4289    0.0000 C   0  0  0  0  0  0  0  0  0  0  0  0
    6.7618    0.6039    0.0000 O   0  0  0  0  0  0  0  0  0  0  0  0
    7.4763    1.8414    0.0000 S   0  0  0  0  0  0  0  0  0  0  0  0
    8.1908    2.2539    0.0000 O   0  0  0  0  0  0  0  0  0  0  0  0
    7.8888    1.1269    0.0000 O   0  0  0  0  0  0  0  0  0  0  0  0
    7.0638    2.5559    0.0000 O   0  0  0  0  0  0  0  0  0  0  0  0
    0.3316    2.6664    0.0000 O   0  0  0  0  0  0  0  0  0  0  0  0
  1  2  1  0  0  0  0
  2  3  2  0  0  0  0
  2  4  2  0  0  0  0
  2  5  1  0  0  0  0
  5  6  1  0  0  0  0
  6  7  1  0  0  0  0
  7  8  1  0  0  0  0
  8  9  1  0  0  0  0
  9 10  1  0  0  0  0
 10 11  1  0  0  0  0
 11 12  1  0  0  0  0
 12 13  1  0  0  0  0
 13 14  1  0  0  0  0
 14 15  2  0  0  0  0
 14 16  1  0  0  0  0
 16 17  1  0  0  0  0
 16 18  2  0  0  0  0
 16 19  2  0  0  0  0
  5 20  2  0  0  0  0
M  END
> <RowID>
55

> <Original_SMILES>
[Na+].[Na+].[O-]S(=O)(=O)C(=O)NCCCCCCNC(=O)S([O-])(=O)=O

> <Canonical_QSARr>
OS(=O)(=O)C(=O)NCCCCCCNC(=O)S(O)(=O)=O

> <InChI_Code_QSARr>
InChI=1S/C8H16N2O8S2/c11-7(19(13,14)15)9-5-3-1-2-4-6-10-8(12)20(16,17)18/h1-6H2,(H,9,11)(H,10,12)(H,13,14,15)(H,16,17,18)

> <InChI Key_QSARr>
OPRJDBCRUQFLOO-UHFFFAOYSA-N

> <Salt_Solvent>
[Na+]

> <Salt_Solvent_ID>
110

> <Number of connected components>
3

$$$$
Molecule_56
  Mrv2316 01072400032D          

 52 57  0  0  0  0            999 V2000
    1.8527    2.6286    0.0000 O   0  0  0  0  0  0  0  0  0  0  0  0
    1.1383    2.2161    0.0000 S   0  0  0  0  0  0  0  0  0  0  0  0
    1.5508    1.5016    0.0000 O   0  0  0  0  0  0  0  0  0  0  0  0
    0.7258    2.9305    0.0000 O   0  0  0  0  0  0  0  0  0  0  0  0
    0.4238    1.8036    0.0000 C   0  0  0  0  0  0  0  0  0  0  0  0
    0.4238    0.9786    0.0000 C   0  0  0  0  0  0  0  0  0  0  0  0
    1.1383    0.5661    0.0000 N   0  0  0  0  0  0  0  0  0  0  0  0
    1.1383   -0.2589    0.0000 C   0  0  0  0  0  0  0  0  0  0  0  0
    1.8527   -0.6714    0.0000 C   0  0  0  0  0  0  0  0  0  0  0  0
    1.8527   -1.4964    0.0000 C   0  0  0  0  0  0  0  0  0  0  0  0
    2.5672   -1.9089    0.0000 C   0  0  0  0  0  0  0  0  0  0  0  0
    3.2817   -1.4964    0.0000 C   0  0  0  0  0  0  0  0  0  0  0  0
    3.2817   -0.6714    0.0000 C   0  0  0  0  0  0  0  0  0  0  0  0
    2.5672   -0.2589    0.0000 C   0  0  0  0  0  0  0  0  0  0  0  0
    2.5672    0.5661    0.0000 O   0  0  0  0  0  0  0  0  0  0  0  0
    3.9962   -0.2589    0.0000 C   0  0  0  0  0  0  0  0  0  0  0  0
    4.7106   -0.6714    0.0000 C   0  0  0  0  0  0  0  0  0  0  0  0
    4.7106   -1.4964    0.0000 C   0  0  0  0  0  0  0  0  0  0  0  0
    3.9962   -1.9089    0.0000 C   0  0  0  0  0  0  0  0  0  0  0  0
    2.5672   -2.7339    0.0000 C   0  0  0  0  0  0  0  0  0  0  0  0
    1.8527   -3.1464    0.0000 C   0  0  0  0  0  0  0  0  0  0  0  0
    1.1383   -2.7339    0.0000 N   0  0  0  0  0  0  0  0  0  0  0  0
    0.4238   -3.1464    0.0000 C   0  0  0  0  0  0  0  0  0  0  0  0
    1.1383   -1.9089    0.0000 C   0  0  0  0  0  0  0  0  0  0  0  0
    0.4238   -1.4964    0.0000 C   0  0  0  0  0  0  0  0  0  0  0  0
    0.4238   -0.6714    0.0000 C   0  0  0  0  0  0  0  0  0  0  0  0
    1.8527   -3.9714    0.0000 O   0  0  0  0  0  0  0  0  0  0  0  0
    3.2817   -3.1464    0.0000 C   0  0  0  0  0  0  0  0  0  0  0  0
    3.2817   -3.9714    0.0000 C   0  0  0  0  0  0  0  0  0  0  0  0
    3.9962   -4.3839    0.0000 C   0  0  0  0  0  0  0  0  0  0  0  0
    3.9962   -5.2089    0.0000 C   0  0  0  0  0  0  0  0  0  0  0  0
    3.2817   -5.6214    0.0000 C   0  0  0  0  0  0  0  0  0  0  0  0
    2.5672   -5.2089    0.0000 C   0  0  0  0  0  0  0  0  0  0  0  0
    1.8527   -5.6214    0.0000 S   0  0  0  0  0  0  0  0  0  0  0  0
    1.1383   -6.0339    0.0000 O   0  0  0  0  0  0  0  0  0  0  0  0
    2.2652   -6.3359    0.0000 O   0  0  0  0  0  0  0  0  0  0  0  0
    1.4402   -4.9070    0.0000 O   0  0  0  0  0  0  0  0  0  0  0  0
    2.5672   -4.3839    0.0000 C   0  0  0  0  0  0  0  0  0  0  0  0
    3.9962   -2.7339    0.0000 O   0  0  0  0  0  0  0  0  0  0  0  0
   -0.2907    0.5661    0.0000 C   0  0  0  0  0  0  0  0  0  0  0  0
   -1.0051    0.9786    0.0000 C   0  0  0  0  0  0  0  0  0  0  0  0
   -1.0051    1.8036    0.0000 C   0  0  0  0  0  0  0  0  0  0  0  0
   -1.7196    2.2161    0.0000 S   0  0  0  0  0  0  0  0  0  0  0  0
   -1.3071    2.9305    0.0000 C   0  0  0  0  0  0  0  0  0  0  0  0
   -1.7196    3.6450    0.0000 C   0  0  0  0  0  0  0  0  0  0  0  0
   -1.3071    4.3595    0.0000 C   0  0  0  0  0  0  0  0  0  0  0  0
   -1.7196    5.0740    0.0000 C   0  0  0  0  0  0  0  0  0  0  0  0
   -1.3071    5.7884    0.0000 C   0  0  0  0  0  0  0  0  0  0  0  0
   -1.7196    6.5029    0.0000 C   0  0  0  0  0  0  0  0  0  0  0  0
   -2.1321    1.5016    0.0000 O   0  0  0  0  0  0  0  0  0  0  0  0
   -2.4341    2.6286    0.0000 O   0  0  0  0  0  0  0  0  0  0  0  0
   -0.2907    2.2161    0.0000 C   0  0  0  0  0  0  0  0  0  0  0  0
  1  2  1  0  0  0  0
  2  3  2  0  0  0  0
  2  4  2  0  0  0  0
  2  5  1  0  0  0  0
  6  5  1  0  0  0  0
  6  7  1  0  0  0  0
  7  8  1  0  0  0  0
  9  8  2  0  0  0  0
  9 10  1  0  0  0  0
 10 11  1  0  0  0  0
 11 12  1  0  0  0  0
 13 12  2  0  0  0  0
 13 14  1  0  0  0  0
 14  9  1  0  0  0  0
 14 15  2  0  0  0  0
 16 13  1  0  0  0  0
 17 16  2  0  0  0  0
 18 17  1  0  0  0  0
 19 18  2  0  0  0  0
 12 19  1  0  0  0  0
 11 20  2  0  0  0  0
 20 21  1  0  0  0  0
 21 22  1  0  0  0  0
 22 23  1  0  0  0  0
 22 24  1  0  0  0  0
 24 10  2  0  0  0  0
 25 24  1  0  0  0  0
 26 25  2  0  0  0  0
  8 26  1  0  0  0  0
 21 27  2  0  0  0  0
 20 28  1  0  0  0  0
 28 29  1  0  0  0  0
 30 29  2  0  0  0  0
 31 30  1  0  0  0  0
 32 31  2  0  0  0  0
 33 32  1  0  0  0  0
 33 34  1  0  0  0  0
 34 35  1  0  0  0  0
 34 36  2  0  0  0  0
 34 37  2  0  0  0  0
 38 33  2  0  0  0  0
 29 38  1  0  0  0  0
 28 39  2  0  0  0  0
 40  6  2  0  0  0  0
 41 40  1  0  0  0  0
 42 41  2  0  0  0  0
 42 43  1  0  0  0  0
 43 44  1  0  0  0  0
 44 45  1  0  0  0  0
 45 46  1  0  0  0  0
 46 47  1  0  0  0  0
 47 48  1  0  0  0  0
 48 49  1  0  0  0  0
 43 50  2  0  0  0  0
 43 51  2  0  0  0  0
 52 42  1  0  0  0  0
  5 52  2  0  0  0  0
M  END
> <RowID>
56

> <Original_SMILES>
[NH4+].[NH4+].CCCCCCS(=O)(=O)C1=CC(=C(C=C1)NC1=CC=C2C3C(=C(C(=O)C4=CC(=CC=C4)S([O-])(=O)=O)C(=O)N2C)C2C=CC=CC=2C(=O)C1=3)S([O-])(=O)=O

> <Canonical_QSARr>
CCCCCCS(=O)(=O)C1C=C(C(=CC=1)NC1C=CC2=C3C(=C(C(=O)C4C=C(C=CC=4)S(O)(=O)=O)C(=O)N2C)C2C=CC=CC=2C(=O)C=13)S(O)(=O)=O

> <InChI_Code_QSARr>
InChI=1S/C36H32N2O11S3/c1-3-4-5-8-18-50(42,43)22-14-15-26(29(20-22)52(47,48)49)37-27-16-17-28-32-30(24-12-6-7-13-25(24)35(40)31(27)32)33(36(41)38(28)2)34(39)21-10-9-11-23(19-21)51(44,45)46/h6-7,9-17,19-20,37H,3-5,8,18H2,1-2H3,(H,44,45,46)(H,47,48,49)

> <InChI Key_QSARr>
AWUMAADZPSDLFF-UHFFFAOYSA-N

> <Salt_Solvent>
[NH4+]

> <Salt_Solvent_ID>
70

> <Number of connected components>
3

$$$$
Molecule_57
  Mrv2316 01072400032D          

 16 16  0  0  0  0            999 V2000
    2.3667    1.1086    0.0000 N   0  0  0  0  0  0  0  0  0  0  0  0
    1.6522    0.6961    0.0000 C   0  0  0  0  0  0  0  0  0  0  0  0
    0.9377    1.1086    0.0000 C   0  0  0  0  0  0  0  0  0  0  0  0
    0.9377    1.9336    0.0000 I   0  0  0  0  0  0  0  0  0  0  0  0
    0.2233    0.6961    0.0000 C   0  0  0  0  0  0  0  0  0  0  0  0
   -0.4912    1.1086    0.0000 C   0  0  0  0  0  0  0  0  0  0  0  0
   -1.2057    0.6961    0.0000 O   0  0  0  0  0  0  0  0  0  0  0  0
   -0.4912    1.9336    0.0000 Cl  0  0  0  0  0  0  0  0  0  0  0  0
    0.2233   -0.1289    0.0000 C   0  0  0  0  0  0  0  0  0  0  0  0
   -0.4912   -0.5414    0.0000 I   0  0  0  0  0  0  0  0  0  0  0  0
    0.9377   -0.5414    0.0000 C   0  0  0  0  0  0  0  0  0  0  0  0
    0.9377   -1.3664    0.0000 C   0  0  0  0  0  0  0  0  0  0  0  0
    1.6522   -1.7789    0.0000 O   0  0  0  0  0  0  0  0  0  0  0  0
    0.2233   -1.7789    0.0000 Cl  0  0  0  0  0  0  0  0  0  0  0  0
    1.6522   -0.1289    0.0000 C   0  0  0  0  0  0  0  0  0  0  0  0
    2.3667   -0.5414    0.0000 I   0  0  0  0  0  0  0  0  0  0  0  0
  1  2  1  0  0  0  0
  3  2  1  0  0  0  0
  3  4  1  0  0  0  0
  5  3  2  0  0  0  0
  5  6  1  0  0  0  0
  6  7  2  0  0  0  0
  6  8  1  0  0  0  0
  9  5  1  0  0  0  0
  9 10  1  0  0  0  0
 11  9  2  0  0  0  0
 11 12  1  0  0  0  0
 12 13  2  0  0  0  0
 12 14  1  0  0  0  0
 15 11  1  0  0  0  0
  2 15  2  0  0  0  0
 15 16  1  0  0  0  0
M  END
> <RowID>
57

> <Original_SMILES>
NC1C(I)=C(C(I)=C(C=1I)C(=O)Cl)C(=O)Cl

> <Canonical_QSARr>
NC1C(I)=C(C(I)=C(C=1I)C(=O)Cl)C(=O)Cl

> <InChI_Code_QSARr>
InChI=1S/C8H2Cl2I3NO2/c9-7(15)1-3(11)2(8(10)16)5(13)6(14)4(1)12/h14H2

> <InChI Key_QSARr>
FBJVWRITWDYUAC-UHFFFAOYSA-N

> <Salt_Solvent>


> <Salt_Solvent_ID>
0

> <Number of connected components>
1

$$$$
Molecule_58
  Mrv2316 01072400032D          

 25 28  0  0  0  0            999 V2000
    1.2383   -3.6793    0.0000 C   0  0  0  0  0  0  0  0  0  0  0  0
    1.7447   -3.0280    0.0000 C   0  0  0  0  0  0  0  0  0  0  0  0
    1.4338   -2.2638    0.0000 O   0  0  0  0  0  0  0  0  0  0  0  0
    2.5619   -3.1408    0.0000 O   0  0  0  0  0  0  0  0  0  0  0  0
    3.0683   -2.4895    0.0000 C   0  0  0  0  0  0  0  0  0  0  0  0
    2.8390   -1.6970    0.0000 C   0  0  0  0  0  0  0  0  0  0  0  0
    3.5218   -1.2340    0.0000 C   0  0  0  0  0  0  0  0  0  0  0  0
    4.1731   -1.7404    0.0000 C   0  0  0  0  0  0  0  0  0  0  0  0
    4.9853   -1.5952    0.0000 C   0  0  0  0  0  0  0  0  0  0  0  0
    5.2656   -0.8192    0.0000 C   0  0  0  0  0  0  0  0  0  0  0  0
    6.0777   -0.6740    0.0000 C   0  0  0  0  0  0  0  0  0  0  0  0
    6.6095   -1.3047    0.0000 C   0  0  0  0  0  0  0  0  0  0  0  0
    7.4216   -1.1595    0.0000 C   0  0  0  0  0  0  0  0  0  0  0  0
    7.9534   -1.7902    0.0000 C   0  0  0  0  0  0  0  0  0  0  0  0
    8.7656   -1.6450    0.0000 O   0  0  0  0  0  0  0  0  0  0  0  0
    7.6731   -2.5662    0.0000 C   0  0  0  0  0  0  0  0  0  0  0  0
    6.8610   -2.7114    0.0000 C   0  0  0  0  0  0  0  0  0  0  0  0
    6.5807   -3.4873    0.0000 C   0  0  0  0  0  0  0  0  0  0  0  0
    6.3292   -2.0807    0.0000 C   0  0  0  0  0  0  0  0  0  0  0  0
    6.0489   -2.8566    0.0000 C   0  0  0  0  0  0  0  0  0  0  0  0
    5.5171   -2.2259    0.0000 C   0  0  0  0  0  0  0  0  0  0  0  0
    5.2368   -3.0018    0.0000 C   0  0  0  0  0  0  0  0  0  0  0  0
    4.4247   -3.1470    0.0000 C   0  0  0  0  0  0  0  0  0  0  0  0
    3.8928   -2.5163    0.0000 C   0  0  0  0  0  0  0  0  0  0  0  0
    3.5330   -3.2587    0.0000 C   0  0  0  0  0  0  0  0  0  0  0  0
  1  2  1  0  0  0  0
  2  3  2  0  0  0  0
  2  4  1  0  0  0  0
  4  5  1  0  0  0  0
  6  5  1  0  0  0  0
  7  6  1  0  0  0  0
  8  7  1  0  0  0  0
  8  9  1  0  0  0  0
 10  9  1  0  0  0  0
 11 10  1  0  0  0  0
 12 11  1  0  0  0  0
 12 13  1  0  0  0  0
 13 14  1  0  0  0  0
 14 15  2  0  0  0  0
 14 16  1  0  0  0  0
 16 17  1  0  0  0  0
 17 18  1  0  0  0  0
 17 19  1  0  0  0  0
 19 12  1  0  0  0  0
 19 20  1  0  0  0  0
 21 19  1  0  0  0  0
  9 21  1  0  0  0  0
 21 22  1  0  0  0  0
 22 23  1  0  0  0  0
 23 24  1  0  0  0  0
  5 24  1  0  0  0  0
 24  8  1  0  0  0  0
 24 25  1  0  0  0  0
M  END
> <RowID>
58

> <Original_SMILES>
CC(=O)OC1CCC2C3CCC4CC(=O)CC(C)C4(C)C3CCC12C

> <Canonical_QSARr>
CC(=O)OC1CCC2C3CCC4CC(=O)CC(C)C4(C)C3CCC12C

> <InChI_Code_QSARr>
InChI=1S/C22H34O3/c1-13-11-16(24)12-15-5-6-17-18-7-8-20(25-14(2)23)21(18,3)10-9-19(17)22(13,15)4/h13,15,17-20H,5-12H2,1-4H3

> <InChI Key_QSARr>
ZWCXCOXAEJHAHA-UHFFFAOYSA-N

> <Salt_Solvent>


> <Salt_Solvent_ID>
0

> <Number of connected components>
1

$$$$
Molecule_59
  Mrv2316 01072400032D          

  7  6  0  0  0  0            999 V2000
    2.8875   -0.7145    0.0000 O   0  0  0  0  0  0  0  0  0  0  0  0
    2.0625   -0.7145    0.0000 S   0  0  0  0  0  0  0  0  0  0  0  0
    2.0625    0.1105    0.0000 O   0  0  0  0  0  0  0  0  0  0  0  0
    2.0625   -1.5395    0.0000 O   0  0  0  0  0  0  0  0  0  0  0  0
    1.2375   -0.7145    0.0000 C   0  0  0  0  0  0  0  0  0  0  0  0
    0.8250   -0.0000    0.0000 C   0  0  0  0  0  0  0  0  0  0  0  0
    0.0000   -0.0000    0.0000 C   0  0  0  0  0  0  0  0  0  0  0  0
  1  2  1  0  0  0  0
  2  3  2  0  0  0  0
  2  4  2  0  0  0  0
  2  5  1  0  0  0  0
  5  6  1  0  0  0  0
  6  7  2  0  0  0  0
M  END
> <RowID>
59

> <Original_SMILES>
[Na+].C=CCS([O-])(=O)=O

> <Canonical_QSARr>
C=CCS(O)(=O)=O

> <InChI_Code_QSARr>
InChI=1S/C3H6O3S/c1-2-3-7(4,5)6/h2H,1,3H2,(H,4,5,6)

> <InChI Key_QSARr>
UIIIBRHUICCMAI-UHFFFAOYSA-N

> <Salt_Solvent>
[Na+]

> <Salt_Solvent_ID>
110

> <Number of connected components>
2

$$$$
Molecule_60
  Mrv2316 01072400032D          

 12 13  0  0  0  0            999 V2000
    4.9375    1.8882    0.0000 C   0  0  0  0  0  0  0  0  0  0  0  0
    4.2230    2.3007    0.0000 C   0  0  0  0  0  0  0  0  0  0  0  0
    4.2230    3.1257    0.0000 C   0  0  0  0  0  0  0  0  0  0  0  0
    3.5086    3.5382    0.0000 C   0  0  0  0  0  0  0  0  0  0  0  0
    2.7941    3.1257    0.0000 C   0  0  0  0  0  0  0  0  0  0  0  0
    2.7941    2.3007    0.0000 C   0  0  0  0  0  0  0  0  0  0  0  0
    3.5086    1.8882    0.0000 C   0  0  0  0  0  0  0  0  0  0  0  0
    3.5086    1.0632    0.0000 O   0  0  0  0  0  0  0  0  0  0  0  0
    2.7941    0.6507    0.0000 C   0  0  0  0  0  0  0  0  0  0  0  0
    2.7941   -0.1743    0.0000 C   0  0  0  0  0  0  0  0  0  0  0  0
    2.3816   -0.8888    0.0000 C   0  0  0  0  0  0  0  0  0  0  0  0
    3.2066   -0.8888    0.0000 O   0  0  0  0  0  0  0  0  0  0  0  0
  1  2  1  0  0  0  0
  3  2  2  0  0  0  0
  4  3  1  0  0  0  0
  5  4  2  0  0  0  0
  6  5  1  0  0  0  0
  7  6  2  0  0  0  0
  2  7  1  0  0  0  0
  7  8  1  0  0  0  0
  8  9  1  0  0  0  0
  9 10  1  0  0  0  0
 11 10  1  0  0  0  0
 12 11  1  0  0  0  0
 10 12  1  0  0  0  0
M  END
> <RowID>
60

> <Original_SMILES>
CC1=CC=CC=C1OCC1CO1

> <Canonical_QSARr>
CC1=CC=CC=C1OCC1CO1

> <InChI_Code_QSARr>
InChI=1S/C10H12O2/c1-8-4-2-3-5-10(8)12-7-9-6-11-9/h2-5,9H,6-7H2,1H3

> <InChI Key_QSARr>
KFUSXMDYOPXKKT-UHFFFAOYSA-N

> <Salt_Solvent>


> <Salt_Solvent_ID>
0

> <Number of connected components>
1

$$$$
Molecule_61
  Mrv2316 01072400032D          

 11 12  0  0  0  0            999 V2000
   -0.1712   -0.6979    0.0000 O   0  0  0  0  0  0  0  0  0  0  0  0
    0.6538   -0.6979    0.0000 C   0  0  0  0  0  0  0  0  0  0  0  0
    1.1387   -0.0305    0.0000 C   0  0  0  0  0  0  0  0  0  0  0  0
    1.9233   -0.2854    0.0000 C   0  0  0  0  0  0  0  0  0  0  0  0
    2.6378    0.1271    0.0000 C   0  0  0  0  0  0  0  0  0  0  0  0
    3.3523   -0.2854    0.0000 C   0  0  0  0  0  0  0  0  0  0  0  0
    3.3523   -1.1104    0.0000 C   0  0  0  0  0  0  0  0  0  0  0  0
    2.6378   -1.5229    0.0000 C   0  0  0  0  0  0  0  0  0  0  0  0
    2.6378   -2.3479    0.0000 F   0  0  0  0  0  0  0  0  0  0  0  0
    1.9233   -1.1104    0.0000 C   0  0  0  0  0  0  0  0  0  0  0  0
    1.1387   -1.3653    0.0000 N   0  0  0  0  0  0  0  0  0  0  0  0
  1  2  2  0  0  0  0
  3  2  1  0  0  0  0
  4  3  1  0  0  0  0
  4  5  1  0  0  0  0
  5  6  2  0  0  0  0
  6  7  1  0  0  0  0
  7  8  2  0  0  0  0
  8  9  1  0  0  0  0
  8 10  1  0  0  0  0
 10  4  2  0  0  0  0
 11 10  1  0  0  0  0
  2 11  1  0  0  0  0
M  END
> <RowID>
61

> <Original_SMILES>
O=C1CC2C=CC=C(F)C=2N1

> <Canonical_QSARr>
O=C1CC2C=CC=C(F)C=2N1

> <InChI_Code_QSARr>
InChI=1S/C8H6FNO/c9-6-3-1-2-5-4-7(11)10-8(5)6/h1-3H,4H2,(H,10,11)

> <InChI Key_QSARr>
VMUIOEOYZHJLEZ-UHFFFAOYSA-N

> <Salt_Solvent>


> <Salt_Solvent_ID>
0

> <Number of connected components>
1

$$$$
Molecule_62
  Mrv2316 01072400032D          

 21 20  0  0  0  0            999 V2000
    2.2836    2.1434    0.0000 O   0  0  0  0  0  0  0  0  0  0  0  0
    2.9980    2.5559    0.0000 C   0  0  0  0  0  0  0  0  0  0  0  0
    2.9980    3.3809    0.0000 O   0  0  0  0  0  0  0  0  0  0  0  0
    3.7125    2.1434    0.0000 C   0  0  0  0  0  0  0  0  0  0  0  0
    4.4270    2.5559    0.0000 C   0  0  0  0  0  0  0  0  0  0  0  0
    5.1415    2.1434    0.0000 C   0  0  0  0  0  0  0  0  0  0  0  0
    5.8559    2.5559    0.0000 C   0  0  0  0  0  0  0  0  0  0  0  0
    6.5704    2.1434    0.0000 C   0  0  0  0  0  0  0  0  0  0  0  0
    7.2849    2.5559    0.0000 C   0  0  0  0  0  0  0  0  0  0  0  0
    7.9993    2.1434    0.0000 C   0  0  0  0  0  0  0  0  0  0  0  0
    8.7138    2.5559    0.0000 C   0  0  0  0  0  0  0  0  0  0  0  0
    9.4283    2.1434    0.0000 C   0  0  0  0  0  0  0  0  0  0  0  0
   10.1428    2.5559    0.0000 C   0  0  0  0  0  0  0  0  0  0  0  0
   10.1428    3.3809    0.0000 C   0  0  0  0  0  0  0  0  0  0  0  0
   10.8572    3.7934    0.0000 C   0  0  0  0  0  0  0  0  0  0  0  0
   10.8572    4.6184    0.0000 C   0  0  0  0  0  0  0  0  0  0  0  0
   11.5717    5.0309    0.0000 C   0  0  0  0  0  0  0  0  0  0  0  0
   11.5717    5.8559    0.0000 C   0  0  0  0  0  0  0  0  0  0  0  0
   12.2862    6.2684    0.0000 C   0  0  0  0  0  0  0  0  0  0  0  0
   12.2862    7.0934    0.0000 C   0  0  0  0  0  0  0  0  0  0  0  0
    9.4283    3.7934    0.0000 O   0  0  0  0  0  0  0  0  0  0  0  0
  1  2  1  0  0  0  0
  2  3  2  0  0  0  0
  2  4  1  0  0  0  0
  4  5  1  0  0  0  0
  5  6  1  0  0  0  0
  6  7  1  0  0  0  0
  7  8  1  0  0  0  0
  8  9  1  0  0  0  0
  9 10  1  0  0  0  0
 11 10  1  4  0  0  0
 11 12  2  0  0  0  0
 12 13  1  0  0  0  0
 13 14  1  0  0  0  0
 14 15  1  0  0  0  0
 15 16  1  0  0  0  0
 16 17  1  0  0  0  0
 17 18  1  0  0  0  0
 18 19  1  0  0  0  0
 19 20  1  0  0  0  0
 14 21  1  0  0  0  0
M  END
> <RowID>
62

> <Original_SMILES>
[Zn+2].CCCCCCC(O)CC=CCCCCCCCC([O-])=O.CCCCCCC(O)CC=CCCCCCCCC([O-])=O

> <Canonical_QSARr>
CCCCCCC(O)CC=CCCCCCCCC(O)=O

> <InChI_Code_QSARr>
InChI=1S/C18H34O3/c1-2-3-4-11-14-17(19)15-12-9-7-5-6-8-10-13-16-18(20)21/h9,12,17,19H,2-8,10-11,13-16H2,1H3,(H,20,21)

> <InChI Key_QSARr>
WBHHMMIMDMUBKC-UHFFFAOYSA-N

> <Salt_Solvent>
[Zn+2]

> <Salt_Solvent_ID>
300

> <Number of connected components>
3

$$$$
Molecule_63
  Mrv2316 01072400032D          

 20 19  0  0  0  0            999 V2000
    6.7105    4.6993    0.0000 C   0  0  0  0  0  0  0  0  0  0  0  0
    7.4250    4.2868    0.0000 C   0  0  0  0  0  0  0  0  0  0  0  0
    8.1395    4.6993    0.0000 C   0  0  0  0  0  0  0  0  0  0  0  0
    8.8539    4.2868    0.0000 C   0  0  0  0  0  0  0  0  0  0  0  0
    9.5684    4.6993    0.0000 C   0  0  0  0  0  0  0  0  0  0  0  0
   10.2829    4.2868    0.0000 C   0  0  0  0  0  0  0  0  0  0  0  0
   10.9974    4.6993    0.0000 O   0  0  0  0  0  0  0  0  0  0  0  0
   11.7118    4.2868    0.0000 C   0  0  0  0  0  0  0  0  0  0  0  0
   11.7118    3.4618    0.0000 O   0  0  0  0  0  0  0  0  0  0  0  0
   12.4263    4.6993    0.0000 O   0  0  0  0  0  0  0  0  0  0  0  0
   13.1408    4.2868    0.0000 C   0  0  0  0  0  0  0  0  0  0  0  0
   13.8552    4.6993    0.0000 C   0  0  0  0  0  0  0  0  0  0  0  0
   14.5697    4.2868    0.0000 C   0  0  0  0  0  0  0  0  0  0  0  0
   15.2842    4.6993    0.0000 C   0  0  0  0  0  0  0  0  0  0  0  0
   15.9986    4.2868    0.0000 C   0  0  0  0  0  0  0  0  0  0  0  0
   16.7131    4.6993    0.0000 C   0  0  0  0  0  0  0  0  0  0  0  0
   13.8552    5.5243    0.0000 C   0  0  0  0  0  0  0  0  0  0  0  0
   14.5697    5.9368    0.0000 C   0  0  0  0  0  0  0  0  0  0  0  0
    9.5684    5.5243    0.0000 C   0  0  0  0  0  0  0  0  0  0  0  0
   10.2829    5.9368    0.0000 C   0  0  0  0  0  0  0  0  0  0  0  0
  1  2  1  0  0  0  0
  2  3  1  0  0  0  0
  3  4  1  0  0  0  0
  4  5  1  0  0  0  0
  5  6  1  0  0  0  0
  6  7  1  0  0  0  0
  7  8  1  0  0  0  0
  8  9  2  0  0  0  0
  8 10  1  0  0  0  0
 10 11  1  0  0  0  0
 11 12  1  0  0  0  0
 12 13  1  0  0  0  0
 13 14  1  0  0  0  0
 14 15  1  0  0  0  0
 15 16  1  0  0  0  0
 12 17  1  0  0  0  0
 17 18  1  0  0  0  0
  5 19  1  0  0  0  0
 19 20  1  0  0  0  0
M  END
> <RowID>
63

> <Original_SMILES>
CCCCC(COC(=O)OCC(CCCC)CC)CC

> <Canonical_QSARr>
CCCCC(COC(=O)OCC(CCCC)CC)CC

> <InChI_Code_QSARr>
InChI=1S/C17H34O3/c1-5-9-11-15(7-3)13-19-17(18)20-14-16(8-4)12-10-6-2/h15-16H,5-14H2,1-4H3

> <InChI Key_QSARr>
PXTQQOLKZBLYDY-UHFFFAOYSA-N

> <Salt_Solvent>


> <Salt_Solvent_ID>
0

> <Number of connected components>
1

$$$$
Molecule_64
  Mrv2316 01072400032D          

 22 23  0  0  0  0            999 V2000
   -0.0649   -7.8375    0.0000 C   0  0  0  0  0  0  0  0  0  0  0  0
    0.6495   -7.4250    0.0000 C   0  0  0  0  0  0  0  0  0  0  0  0
    1.3640   -7.8375    0.0000 C   0  0  0  0  0  0  0  0  0  0  0  0
    2.0785   -7.4250    0.0000 C   0  0  0  0  0  0  0  0  0  0  0  0
    2.7929   -7.8375    0.0000 O   0  0  0  0  0  0  0  0  0  0  0  0
    3.5074   -7.4250    0.0000 C   0  0  0  0  0  0  0  0  0  0  0  0
    4.2219   -7.8375    0.0000 C   0  0  0  0  0  0  0  0  0  0  0  0
    4.9364   -7.4250    0.0000 C   0  0  0  0  0  0  0  0  0  0  0  0
    4.9364   -6.6000    0.0000 C   0  0  0  0  0  0  0  0  0  0  0  0
    5.6508   -6.1875    0.0000 C   0  0  0  0  0  0  0  0  0  0  0  0
    6.3653   -6.6000    0.0000 C   0  0  0  0  0  0  0  0  0  0  0  0
    7.0798   -6.1875    0.0000 C   0  0  0  0  0  0  0  0  0  0  0  0
    7.0798   -5.3625    0.0000 C   0  0  0  0  0  0  0  0  0  0  0  0
    7.7942   -4.9500    0.0000 C   0  0  0  0  0  0  0  0  0  0  0  0
    8.5087   -5.3625    0.0000 C   0  0  0  0  0  0  0  0  0  0  0  0
    9.2232   -4.9500    0.0000 C   0  0  0  0  0  0  0  0  0  0  0  0
    6.3653   -4.9500    0.0000 C   0  0  0  0  0  0  0  0  0  0  0  0
    5.6508   -5.3625    0.0000 C   0  0  0  0  0  0  0  0  0  0  0  0
    4.2219   -6.1875    0.0000 C   0  0  0  0  0  0  0  0  0  0  0  0
    4.2219   -5.3625    0.0000 F   0  0  0  0  0  0  0  0  0  0  0  0
    3.5074   -6.6000    0.0000 C   0  0  0  0  0  0  0  0  0  0  0  0
    2.7929   -6.1875    0.0000 F   0  0  0  0  0  0  0  0  0  0  0  0
  1  2  1  0  0  0  0
  2  3  1  0  0  0  0
  3  4  1  0  0  0  0
  4  5  1  0  0  0  0
  5  6  1  0  0  0  0
  7  6  1  0  0  0  0
  8  7  2  0  0  0  0
  9  8  1  0  0  0  0
  9 10  1  0  0  0  0
 11 10  1  0  0  0  0
 12 11  1  0  0  0  0
 13 12  1  0  0  0  0
 13 14  1  0  0  0  0
 14 15  1  0  0  0  0
 15 16  1  0  0  0  0
 17 13  1  0  0  0  0
 18 17  1  0  0  0  0
 10 18  1  0  0  0  0
 19  9  2  0  0  0  0
 19 20  1  0  0  0  0
 21 19  1  0  0  0  0
  6 21  2  0  0  0  0
 21 22  1  0  0  0  0
M  END
> <RowID>
64

> <Original_SMILES>
CCCCOC1C=CC(C2CCC(CCC)CC2)=C(F)C=1F

> <Canonical_QSARr>
CCCCOC1C=CC(C2CCC(CCC)CC2)=C(F)C=1F

> <InChI_Code_QSARr>
InChI=1S/C19H28F2O/c1-3-5-13-22-17-12-11-16(18(20)19(17)21)15-9-7-14(6-4-2)8-10-15/h11-12,14-15H,3-10,13H2,1-2H3

> <InChI Key_QSARr>
KYNDSYARZOJNCG-UHFFFAOYSA-N

> <Salt_Solvent>


> <Salt_Solvent_ID>
0

> <Number of connected components>
1

$$$$
Molecule_65
  Mrv2316 01072400032D          

 27 26  0  0  0  0            999 V2000
    3.2408   -3.0789    0.0000 O   0  0  0  0  0  0  0  0  0  0  0  0
    2.5263   -2.6664    0.0000 C   0  0  0  0  0  0  0  0  0  0  0  0
    2.5263   -1.8414    0.0000 O   0  0  0  0  0  0  0  0  0  0  0  0
    1.8118   -3.0789    0.0000 C   0  0  0  0  0  0  0  0  0  0  0  0
    1.0974   -2.6664    0.0000 N   0  0  0  0  0  0  0  0  0  0  0  0
    0.3829   -3.0789    0.0000 C   0  0  0  0  0  0  0  0  0  0  0  0
   -0.3316   -2.6664    0.0000 C   0  0  0  0  0  0  0  0  0  0  0  0
   -1.0460   -3.0789    0.0000 N   0  0  0  0  0  0  0  0  0  0  0  0
   -1.0460   -3.9039    0.0000 C   0  0  0  0  0  0  0  0  0  0  0  0
   -0.3316   -4.3164    0.0000 C   0  0  0  0  0  0  0  0  0  0  0  0
    0.3829   -3.9039    0.0000 O   0  0  0  0  0  0  0  0  0  0  0  0
   -0.3316   -5.1414    0.0000 O   0  0  0  0  0  0  0  0  0  0  0  0
   -1.7605   -2.6664    0.0000 C   0  0  0  0  0  0  0  0  0  0  0  0
   -2.4750   -3.0789    0.0000 C   0  0  0  0  0  0  0  0  0  0  0  0
   -3.1895   -2.6664    0.0000 N   0  0  0  0  0  0  0  0  0  0  0  0
   -3.9039   -3.0789    0.0000 C   0  0  0  0  0  0  0  0  0  0  0  0
   -4.6184   -2.6664    0.0000 C   0  0  0  0  0  0  0  0  0  0  0  0
   -5.3329   -3.0789    0.0000 O   0  0  0  0  0  0  0  0  0  0  0  0
   -4.6184   -1.8414    0.0000 O   0  0  0  0  0  0  0  0  0  0  0  0
   -3.1895   -1.8414    0.0000 C   0  0  0  0  0  0  0  0  0  0  0  0
   -2.4750   -1.4289    0.0000 C   0  0  0  0  0  0  0  0  0  0  0  0
   -2.4750   -0.6039    0.0000 O   0  0  0  0  0  0  0  0  0  0  0  0
   -1.7605   -1.8414    0.0000 O   0  0  0  0  0  0  0  0  0  0  0  0
    1.0974   -1.8414    0.0000 C   0  0  0  0  0  0  0  0  0  0  0  0
    0.3829   -1.4289    0.0000 C   0  0  0  0  0  0  0  0  0  0  0  0
   -0.3316   -1.8414    0.0000 O   0  0  0  0  0  0  0  0  0  0  0  0
    0.3829   -0.6039    0.0000 O   0  0  0  0  0  0  0  0  0  0  0  0
  1  2  1  0  0  0  0
  2  3  2  0  0  0  0
  2  4  1  0  0  0  0
  4  5  1  0  0  0  0
  5  6  1  0  0  0  0
  6  7  1  0  0  0  0
  7  8  1  0  0  0  0
  8  9  1  0  0  0  0
  9 10  1  0  0  0  0
 10 11  1  0  0  0  0
 10 12  2  0  0  0  0
  8 13  1  0  0  0  0
 13 14  1  0  0  0  0
 14 15  1  0  0  0  0
 15 16  1  0  0  0  0
 16 17  1  0  0  0  0
 17 18  1  0  0  0  0
 17 19  2  0  0  0  0
 15 20  1  0  0  0  0
 20 21  1  0  0  0  0
 21 22  1  0  0  0  0
 21 23  2  0  0  0  0
  5 24  1  0  0  0  0
 24 25  1  0  0  0  0
 25 26  1  0  0  0  0
 25 27  2  0  0  0  0
M  END
> <RowID>
65

> <Original_SMILES>
[Na+].[Na+].[Na+].[Mn+2].[O-]C(=O)CN(CCN(CC([O-])=O)CC([O-])=O)CCN(CC([O-])=O)CC([O-])=O

> <Canonical_QSARr>
OC(=O)CN(CCN(CC(O)=O)CC(O)=O)CCN(CC(O)=O)CC(O)=O

> <InChI_Code_QSARr>
InChI=1S/C14H23N3O10/c18-10(19)5-15(1-3-16(6-11(20)21)7-12(22)23)2-4-17(8-13(24)25)9-14(26)27/h1-9H2,(H,18,19)(H,20,21)(H,22,23)(H,24,25)(H,26,27)

> <InChI Key_QSARr>
QPCDCPDFJACHGM-UHFFFAOYSA-N

> <Salt_Solvent>
[Na+].[Mn+2]

> <Salt_Solvent_ID>
180

> <Number of connected components>
5

$$$$
Molecule_66
  Mrv2316 01072400032D          

 16 16  0  0  0  0            999 V2000
    2.4113   -0.7219    0.0000 C   0  0  0  0  0  0  0  0  0  0  0  0
    2.4113    0.1031    0.0000 N   0  0  0  0  0  0  0  0  0  0  0  0
    1.6969    0.5156    0.0000 S   0  0  0  0  0  0  0  0  0  0  0  0
    2.1094    1.2301    0.0000 O   0  0  0  0  0  0  0  0  0  0  0  0
    1.2844   -0.1988    0.0000 O   0  0  0  0  0  0  0  0  0  0  0  0
    0.9824    0.9281    0.0000 C   0  0  0  0  0  0  0  0  0  0  0  0
    0.9824    1.7531    0.0000 C   0  0  0  0  0  0  0  0  0  0  0  0
    0.2679    2.1656    0.0000 C   0  0  0  0  0  0  0  0  0  0  0  0
    0.2679    2.9906    0.0000 O   0  0  0  0  0  0  0  0  0  0  0  0
   -0.4465    3.4031    0.0000 C   0  0  0  0  0  0  0  0  0  0  0  0
   -0.4465    1.7531    0.0000 C   0  0  0  0  0  0  0  0  0  0  0  0
   -1.1610    2.1656    0.0000 N   0  0  0  0  0  0  0  0  0  0  0  0
   -0.4465    0.9281    0.0000 C   0  0  0  0  0  0  0  0  0  0  0  0
    0.2679    0.5156    0.0000 C   0  0  0  0  0  0  0  0  0  0  0  0
    0.2679   -0.3094    0.0000 O   0  0  0  0  0  0  0  0  0  0  0  0
    0.9824   -0.7219    0.0000 C   0  0  0  0  0  0  0  0  0  0  0  0
  1  2  1  0  0  0  0
  2  3  1  0  0  0  0
  3  4  2  0  0  0  0
  3  5  2  0  0  0  0
  3  6  1  0  0  0  0
  7  6  1  0  0  0  0
  8  7  2  0  0  0  0
  8  9  1  0  0  0  0
  9 10  1  0  0  0  0
 11  8  1  0  0  0  0
 11 12  1  0  0  0  0
 13 11  2  0  0  0  0
 14 13  1  0  0  0  0
  6 14  2  0  0  0  0
 14 15  1  0  0  0  0
 15 16  1  0  0  0  0
M  END
> <RowID>
66

> <Original_SMILES>
CNS(=O)(=O)C1C=C(OC)C(N)=CC=1OC

> <Canonical_QSARr>
CNS(=O)(=O)C1C=C(OC)C(N)=CC=1OC

> <InChI_Code_QSARr>
InChI=1S/C9H14N2O4S/c1-11-16(12,13)9-5-7(14-2)6(10)4-8(9)15-3/h4-5,11H,10H2,1-3H3

> <InChI Key_QSARr>
CISVVDNATRQDNU-UHFFFAOYSA-N

> <Salt_Solvent>


> <Salt_Solvent_ID>
0

> <Number of connected components>
1

$$$$
Molecule_67
  Mrv2316 01072400032D          

  9  8  0  0  0  0            999 V2000
    2.9980   -2.5559    0.0000 C   0  0  0  0  0  0  0  0  0  0  0  0
    3.7125   -2.1434    0.0000 C   0  0  0  0  0  0  0  0  0  0  0  0
    4.4270   -2.5559    0.0000 C   0  0  0  0  0  0  0  0  0  0  0  0
    5.1414   -2.1434    0.0000 C   0  0  0  0  0  0  0  0  0  0  0  0
    5.8559   -2.5559    0.0000 C   0  0  0  0  0  0  0  0  0  0  0  0
    6.5704   -2.1434    0.0000 C   0  0  0  0  0  0  0  0  0  0  0  0
    7.2849   -2.5559    0.0000 C   0  0  0  0  0  0  0  0  0  0  0  0
    7.9993   -2.1434    0.0000 C   0  0  0  0  0  0  0  0  0  0  0  0
    8.7138   -1.7309    0.0000 N   0  0  0  0  0  0  0  0  0  0  0  0
  1  2  1  0  0  0  0
  2  3  1  0  0  0  0
  3  4  1  0  0  0  0
  4  5  1  0  0  0  0
  5  6  1  0  0  0  0
  6  7  1  0  0  0  0
  7  8  1  0  0  0  0
  8  9  3  0  0  0  0
M  END
> <RowID>
67

> <Original_SMILES>
CCCCCCCC#N

> <Canonical_QSARr>
CCCCCCCC#N

> <InChI_Code_QSARr>
InChI=1S/C8H15N/c1-2-3-4-5-6-7-8-9/h2-7H2,1H3

> <InChI Key_QSARr>
YSIMAPNUZAVQER-UHFFFAOYSA-N

> <Salt_Solvent>


> <Salt_Solvent_ID>
0

> <Number of connected components>
1

$$$$
Molecule_68
  Mrv2316 01072400032D          

 12 11  0  0  0  0            999 V2000
   -0.1914    0.7145    0.0000 C   0  0  0  0  0  0  0  0  0  0  0  0
    0.5230    1.1270    0.0000 C   0  0  0  0  0  0  0  0  0  0  0  0
    0.5230    1.9520    0.0000 C   0  0  0  0  0  0  0  0  0  0  0  0
    1.2375    0.7145    0.0000 C   0  0  0  0  0  0  0  0  0  0  0  0
    1.2375   -0.1105    0.0000 C   0  0  0  0  0  0  0  0  0  0  0  0
    0.5230   -0.5230    0.0000 C   0  0  0  0  0  0  0  0  0  0  0  0
    1.9520    1.1270    0.0000 O   0  0  0  0  0  0  0  0  0  0  0  0
    2.6664    0.7145    0.0000 C   0  0  0  0  0  0  0  0  0  0  0  0
    2.6664   -0.1105    0.0000 O   0  0  0  0  0  0  0  0  0  0  0  0
    3.3809    1.1270    0.0000 C   0  0  0  0  0  0  0  0  0  0  0  0
    4.0954    0.7145    0.0000 C   0  0  0  0  0  0  0  0  0  0  0  0
    4.8099    1.1270    0.0000 C   0  0  0  0  0  0  0  0  0  0  0  0
  1  2  1  0  0  0  0
  2  3  1  0  0  0  0
  2  4  1  0  0  0  0
  4  5  1  0  0  0  0
  5  6  1  0  0  0  0
  4  7  1  0  0  0  0
  7  8  1  0  0  0  0
  8  9  2  0  0  0  0
  8 10  1  0  0  0  0
 10 11  2  0  0  0  0
 11 12  1  4  0  0  0
M  END
> <RowID>
68

> <Original_SMILES>
CC(C)C(CC)OC(=O)C=CC

> <Canonical_QSARr>
CC(C)C(CC)OC(=O)C=CC

> <InChI_Code_QSARr>
InChI=1S/C10H18O2/c1-5-7-10(11)12-9(6-2)8(3)4/h5,7-9H,6H2,1-4H3

> <InChI Key_QSARr>
PVADUHPHJRAAIS-UHFFFAOYSA-N

> <Salt_Solvent>


> <Salt_Solvent_ID>
0

> <Number of connected components>
1

$$$$
Molecule_69
  Mrv2316 01072400032D          

 16 16  0  0  0  0            999 V2000
    3.7510   -1.7531    0.0000 C   0  0  0  0  0  0  0  0  0  0  0  0
    4.4654   -2.1656    0.0000 C   0  0  0  0  0  0  0  0  0  0  0  0
    5.1799   -1.7531    0.0000 C   0  0  0  0  0  0  0  0  0  0  0  0
    5.8944   -2.1656    0.0000 C   0  0  0  0  0  0  0  0  0  0  0  0
    6.6089   -1.7531    0.0000 C   0  0  0  0  0  0  0  0  0  0  0  0
    7.3233   -2.1656    0.0000 C   0  0  0  0  0  0  0  0  0  0  0  0
    8.0378   -1.7531    0.0000 C   0  0  0  0  0  0  0  0  0  0  0  0
    8.0378   -0.9281    0.0000 C   0  0  0  0  0  0  0  0  0  0  0  0
    8.7523   -0.5156    0.0000 O   0  0  0  0  0  0  0  0  0  0  0  0
    8.7523   -2.1656    0.0000 C   0  0  0  0  0  0  0  0  0  0  0  0
    9.4667   -1.7531    0.0000 C   0  0  0  0  0  0  0  0  0  0  0  0
   10.1812   -2.1656    0.0000 C   0  0  0  0  0  0  0  0  0  0  0  0
   10.8957   -1.7531    0.0000 C   0  0  0  0  0  0  0  0  0  0  0  0
   10.8957   -0.9281    0.0000 C   0  0  0  0  0  0  0  0  0  0  0  0
   10.1812   -0.5156    0.0000 C   0  0  0  0  0  0  0  0  0  0  0  0
    9.4667   -0.9281    0.0000 C   0  0  0  0  0  0  0  0  0  0  0  0
  1  2  1  0  0  0  0
  2  3  1  0  0  0  0
  3  4  1  0  0  0  0
  4  5  1  0  0  0  0
  5  6  1  0  0  0  0
  6  7  1  0  0  0  0
  7  8  1  0  0  0  0
  8  9  2  0  0  0  0
  7 10  2  0  0  0  0
 10 11  1  4  0  0  0
 12 11  1  0  0  0  0
 13 12  2  0  0  0  0
 14 13  1  0  0  0  0
 15 14  2  0  0  0  0
 16 15  1  0  0  0  0
 11 16  2  0  0  0  0
M  END
> <RowID>
69

> <Original_SMILES>
CCCCCCC(C=O)=CC1C=CC=CC=1

> <Canonical_QSARr>
CCCCCCC(C=O)=CC1C=CC=CC=1

> <InChI_Code_QSARr>
InChI=1S/C15H20O/c1-2-3-4-6-11-15(13-16)12-14-9-7-5-8-10-14/h5,7-10,12-13H,2-4,6,11H2,1H3

> <InChI Key_QSARr>
GUUHFMWKWLOQMM-UHFFFAOYSA-N

> <Salt_Solvent>


> <Salt_Solvent_ID>
0

> <Number of connected components>
1

$$$$
Molecule_71
  Mrv2316 01072400032D          

 16 16  0  0  0  0            999 V2000
    3.0571   -0.1875    0.0000 O   0  0  0  0  0  0  0  0  0  0  0  0
    2.4440    0.3645    0.0000 P   0  0  0  0  0  0  0  0  0  0  0  0
    2.9960    0.9776    0.0000 O   0  0  0  0  0  0  0  0  0  0  0  0
    1.8920   -0.2486    0.0000 O   0  0  0  0  0  0  0  0  0  0  0  0
    1.8309    0.9166    0.0000 O   0  0  0  0  0  0  0  0  0  0  0  0
    1.0463    0.6616    0.0000 C   0  0  0  0  0  0  0  0  0  0  0  0
    0.3789    1.1465    0.0000 C   0  0  0  0  0  0  0  0  0  0  0  0
    0.3789    1.9715    0.0000 O   0  0  0  0  0  0  0  0  0  0  0  0
   -0.2886    0.6616    0.0000 C   0  0  0  0  0  0  0  0  0  0  0  0
   -1.0732    0.9166    0.0000 C   0  0  0  0  0  0  0  0  0  0  0  0
   -1.2447    1.7235    0.0000 C   0  0  0  0  0  0  0  0  0  0  0  0
   -2.0294    1.9785    0.0000 O   0  0  0  0  0  0  0  0  0  0  0  0
   -1.6863    0.3645    0.0000 O   0  0  0  0  0  0  0  0  0  0  0  0
   -0.0336   -0.1230    0.0000 O   0  0  0  0  0  0  0  0  0  0  0  0
    0.7914   -0.1230    0.0000 C   0  0  0  0  0  0  0  0  0  0  0  0
    1.2763   -0.7904    0.0000 O   0  0  0  0  0  0  0  0  0  0  0  0
  1  2  1  0  0  0  0
  2  3  1  0  0  0  0
  2  4  2  0  0  0  0
  2  5  1  0  0  0  0
  5  6  1  0  0  0  0
  7  6  2  0  0  0  0
  7  8  1  0  0  0  0
  9  7  1  0  0  0  0
  9 10  1  0  0  0  0
 10 11  1  0  0  0  0
 11 12  1  0  0  0  0
 10 13  1  0  0  0  0
 14  9  1  0  0  0  0
 15 14  1  0  0  0  0
  6 15  1  0  0  0  0
 15 16  2  0  0  0  0
M  END
> <RowID>
71

> <Original_SMILES>
[Na+].[Na+].[Na+].[O-]C1C(OC(=O)C=1OP([O-])([O-])=O)C(O)CO

> <Canonical_QSARr>
OC1C(OC(=O)C=1OP(O)(O)=O)C(O)CO

> <InChI_Code_QSARr>
InChI=1S/C6H9O9P/c7-1-2(8)4-3(9)5(6(10)14-4)15-16(11,12)13/h2,4,7-9H,1H2,(H2,11,12,13)

> <InChI Key_QSARr>
MIJPAVRNWPDMOR-UHFFFAOYSA-N

> <Salt_Solvent>
[Na+]

> <Salt_Solvent_ID>
110

> <Number of connected components>
4

$$$$
Molecule_72
  Mrv2316 01072400032D          

 33 34  0  0  0  0            999 V2000
    0.0216    0.8815    0.0000 C   0  0  0  0  0  0  0  0  0  0  0  0
    0.0216    0.0565    0.0000 C   0  0  0  0  0  0  0  0  0  0  0  0
    0.7361   -0.3560    0.0000 C   0  0  0  0  0  0  0  0  0  0  0  0
   -0.6928   -0.3560    0.0000 C   0  0  0  0  0  0  0  0  0  0  0  0
   -0.6928   -1.1810    0.0000 C   0  0  0  0  0  0  0  0  0  0  0  0
    0.0216   -1.5935    0.0000 C   0  0  0  0  0  0  0  0  0  0  0  0
    0.0216   -2.4185    0.0000 C   0  0  0  0  0  0  0  0  0  0  0  0
    0.7361   -2.8310    0.0000 C   0  0  0  0  0  0  0  0  0  0  0  0
    1.4506   -2.4185    0.0000 C   0  0  0  0  0  0  0  0  0  0  0  0
    2.1650   -2.8310    0.0000 O   0  0  0  0  0  0  0  0  0  0  0  0
    2.8795   -2.4185    0.0000 C   0  0  0  0  0  0  0  0  0  0  0  0
    1.4506   -1.5935    0.0000 C   0  0  0  0  0  0  0  0  0  0  0  0
    2.1650   -1.1810    0.0000 O   0  0  0  0  0  0  0  0  0  0  0  0
    2.8795   -1.5935    0.0000 C   0  0  0  0  0  0  0  0  0  0  0  0
    3.5940   -1.1810    0.0000 C   0  0  0  0  0  0  0  0  0  0  0  0
    4.3084   -1.5935    0.0000 C   0  0  0  0  0  0  0  0  0  0  0  0
    5.0229   -1.1810    0.0000 O   0  0  0  0  0  0  0  0  0  0  0  0
    5.0229   -0.3560    0.0000 C   0  0  0  0  0  0  0  0  0  0  0  0
    0.7361   -1.1810    0.0000 C   0  0  0  0  0  0  0  0  0  0  0  0
   -1.4073    0.0565    0.0000 C   0  0  0  0  0  0  0  0  0  0  0  0
   -1.4073    0.8815    0.0000 C   0  0  0  0  0  0  0  0  0  0  0  0
   -0.6928    1.2940    0.0000 N   0  0  0  0  0  0  0  0  0  0  0  0
   -0.6928    2.1190    0.0000 N   0  3  0  0  0  0  0  0  0  0  0  0
   -0.6928    2.9440    0.0000 N   0  5  0  0  0  0  0  0  0  0  0  0
   -2.1218    1.2940    0.0000 C   0  0  0  0  0  0  0  0  0  0  0  0
   -2.2080    2.1145    0.0000 C   0  0  0  0  0  0  0  0  0  0  0  0
   -3.0150    2.2860    0.0000 C   0  0  0  0  0  0  0  0  0  0  0  0
   -3.3506    3.0397    0.0000 C   0  0  0  0  0  0  0  0  0  0  0  0
   -4.1710    3.1259    0.0000 C   0  0  0  0  0  0  0  0  0  0  0  0
   -2.8656    3.7071    0.0000 C   0  0  0  0  0  0  0  0  0  0  0  0
   -3.4275    1.5715    0.0000 C   0  0  0  0  0  0  0  0  0  0  0  0
   -4.2480    1.4853    0.0000 O   0  0  0  0  0  0  0  0  0  0  0  0
   -2.8755    0.9584    0.0000 O   0  0  0  0  0  0  0  0  0  0  0  0
  1  2  1  0  0  0  0
  2  3  1  0  0  0  0
  2  4  1  0  0  0  0
  4  5  1  0  0  0  0
  5  6  1  0  0  0  0
  7  6  1  0  0  0  0
  8  7  2  0  0  0  0
  9  8  1  0  0  0  0
  9 10  1  0  0  0  0
 10 11  1  0  0  0  0
 12  9  2  0  0  0  0
 12 13  1  0  0  0  0
 13 14  1  0  0  0  0
 14 15  1  0  0  0  0
 15 16  1  0  0  0  0
 16 17  1  0  0  0  0
 17 18  1  0  0  0  0
 19 12  1  0  0  0  0
  6 19  2  0  0  0  0
  4 20  1  0  0  0  0
 20 21  1  0  0  0  0
 21 22  1  0  0  0  0
 22 23  2  0  0  0  0
 23 24  2  0  0  0  0
 21 25  1  0  0  0  0
 26 25  1  0  0  0  0
 27 26  1  0  0  0  0
 27 28  1  0  0  0  0
 28 29  1  0  0  0  0
 28 30  1  0  0  0  0
 31 27  1  0  0  0  0
 31 32  2  0  0  0  0
 33 31  1  0  0  0  0
 25 33  1  0  0  0  0
M  CHG  2  23   1  24  -1
M  END
> <RowID>
72

> <Original_SMILES>
CC(C)C(CC1C=CC(OC)=C(C=1)OCCCOC)CC(N=[N+]=[N-])C1CC(C(C)C)C(=O)O1

> <Canonical_QSARr>
CC(C)C(CC1C=CC(OC)=C(C=1)OCCCOC)CC(N=[N+]=[N-])C1CC(C(C)C)C(=O)O1

> <InChI_Code_QSARr>
InChI=1S/C25H39N3O5/c1-16(2)19(14-21(27-28-26)23-15-20(17(3)4)25(29)33-23)12-18-8-9-22(31-6)24(13-18)32-11-7-10-30-5/h8-9,13,16-17,19-21,23H,7,10-12,14-15H2,1-6H3

> <InChI Key_QSARr>
YTRPFWMXDNQTCX-UHFFFAOYSA-N

> <Salt_Solvent>


> <Salt_Solvent_ID>
0

> <Number of connected components>
1

$$$$
Molecule_74
  Mrv2316 01072400032D          

 13 12  0  0  0  0            999 V2000
   -0.1914   -2.3645    0.0000 O   0  0  0  0  0  0  0  0  0  0  0  0
    0.5230   -1.9520    0.0000 C   0  0  0  0  0  0  0  0  0  0  0  0
    1.2375   -2.3645    0.0000 O   0  0  0  0  0  0  0  0  0  0  0  0
    0.5230   -1.1270    0.0000 C   0  0  0  0  0  0  0  0  0  0  0  0
    1.2375   -0.7145    0.0000 C   0  0  0  0  0  0  0  0  0  0  0  0
    1.9520   -0.3020    0.0000 C   0  0  0  0  0  0  0  0  0  0  0  0
    2.6664   -0.7145    0.0000 C   0  0  0  0  0  0  0  0  0  0  0  0
    3.3809   -0.3020    0.0000 O   0  0  0  0  0  0  0  0  0  0  0  0
    2.6664   -1.5395    0.0000 O   0  0  0  0  0  0  0  0  0  0  0  0
    1.6500   -1.4290    0.0000 O   0  0  0  0  0  0  0  0  0  0  0  0
    0.8250   -0.0000    0.0000 C   0  0  0  0  0  0  0  0  0  0  0  0
    1.2375    0.7145    0.0000 O   0  0  0  0  0  0  0  0  0  0  0  0
   -0.0000   -0.0000    0.0000 O   0  0  0  0  0  0  0  0  0  0  0  0
  1  2  1  0  0  0  0
  2  3  2  0  0  0  0
  2  4  1  0  0  0  0
  4  5  1  0  0  0  0
  5  6  1  0  0  0  0
  6  7  1  0  0  0  0
  7  8  1  0  0  0  0
  7  9  2  0  0  0  0
  5 10  1  0  0  0  0
  5 11  1  0  0  0  0
 11 12  1  0  0  0  0
 11 13  2  0  0  0  0
M  END
> <RowID>
74

> <Original_SMILES>
[Mg+2].[Mg+2].[Mg+2].[O-]C(=O)CC(O)(CC([O-])=O)C([O-])=O.[O-]C(=O)CC(O)(CC([O-])=O)C([O-])=O

> <Canonical_QSARr>
OC(=O)C(O)(CC(O)=O)CC(O)=O

> <InChI_Code_QSARr>
InChI=1S/C6H8O7/c7-3(8)1-6(13,5(11)12)2-4(9)10/h13H,1-2H2,(H,7,8)(H,9,10)(H,11,12)

> <InChI Key_QSARr>
KRKNYBCHXYNGOX-UHFFFAOYSA-N

> <Salt_Solvent>
[Mg+2]

> <Salt_Solvent_ID>
120

> <Number of connected components>
5

$$$$
Molecule_75
  Mrv2316 01072400032D          

 15 14  0  0  0  0            999 V2000
    0.1105   -3.7125    0.0000 F   0  0  0  0  0  0  0  0  0  0  0  0
    0.1105   -2.8875    0.0000 C   0  0  0  0  0  0  0  0  0  0  0  0
    0.9355   -2.8875    0.0000 F   0  0  0  0  0  0  0  0  0  0  0  0
   -0.7145   -2.8875    0.0000 F   0  0  0  0  0  0  0  0  0  0  0  0
    0.1105   -2.0625    0.0000 C   0  0  0  0  0  0  0  0  0  0  0  0
   -0.6039   -1.6500    0.0000 F   0  0  0  0  0  0  0  0  0  0  0  0
    0.8250   -1.6500    0.0000 C   0  0  0  0  0  0  0  0  0  0  0  0
    1.5395   -2.0625    0.0000 F   0  0  0  0  0  0  0  0  0  0  0  0
    0.8250   -0.8250    0.0000 C   0  0  0  0  0  0  0  0  0  0  0  0
    1.6500   -0.8250    0.0000 F   0  0  0  0  0  0  0  0  0  0  0  0
   -0.0000   -0.8250    0.0000 F   0  0  0  0  0  0  0  0  0  0  0  0
    0.8250    0.0000    0.0000 C   0  0  0  0  0  0  0  0  0  0  0  0
    0.8250    0.8250    0.0000 F   0  0  0  0  0  0  0  0  0  0  0  0
    1.6500   -0.0000    0.0000 F   0  0  0  0  0  0  0  0  0  0  0  0
   -0.0000    0.0000    0.0000 F   0  0  0  0  0  0  0  0  0  0  0  0
  1  2  1  0  0  0  0
  2  3  1  0  0  0  0
  2  4  1  0  0  0  0
  2  5  1  0  0  0  0
  5  6  1  0  0  0  0
  5  7  1  0  0  0  0
  7  8  1  0  0  0  0
  7  9  1  0  0  0  0
  9 10  1  0  0  0  0
  9 11  1  0  0  0  0
  9 12  1  0  0  0  0
 12 13  1  0  0  0  0
 12 14  1  0  0  0  0
 12 15  1  0  0  0  0
M  END
> <RowID>
75

> <Original_SMILES>
FC(F)(F)C(F)C(F)C(F)(F)C(F)(F)F

> <Canonical_QSARr>
FC(F)(F)C(F)C(F)C(F)(F)C(F)(F)F

> <InChI_Code_QSARr>
InChI=1S/C5H2F10/c6-1(2(7)4(10,11)12)3(8,9)5(13,14)15/h1-2H

> <InChI Key_QSARr>
RIQRGMUSBYGDBL-UHFFFAOYSA-N

> <Salt_Solvent>


> <Salt_Solvent_ID>
0

> <Number of connected components>
1

$$$$
Molecule_76
  Mrv2316 01072400032D          

 15 15  0  0  0  0            999 V2000
   -1.4766    0.0825    0.0000 C   0  0  0  0  0  0  0  0  0  0  0  0
   -0.7621   -0.3300    0.0000 C   0  0  0  0  0  0  0  0  0  0  0  0
   -0.7621   -1.1550    0.0000 C   0  0  0  0  0  0  0  0  0  0  0  0
   -1.4766   -1.5675    0.0000 C   0  0  0  0  0  0  0  0  0  0  0  0
   -0.0476    0.0825    0.0000 C   0  0  0  0  0  0  0  0  0  0  0  0
    0.6668   -0.3300    0.0000 C   0  0  0  0  0  0  0  0  0  0  0  0
    1.3813    0.0825    0.0000 C   0  0  0  0  0  0  0  0  0  0  0  0
    1.3813    0.9075    0.0000 C   0  0  0  0  0  0  0  0  0  0  0  0
    0.6668    1.3200    0.0000 C   0  0  0  0  0  0  0  0  0  0  0  0
    0.6668    2.1450    0.0000 C   0  0  0  0  0  0  0  0  0  0  0  0
   -0.0476    2.5575    0.0000 C   0  0  0  0  0  0  0  0  0  0  0  0
    1.3813    2.5575    0.0000 C   0  0  0  0  0  0  0  0  0  0  0  0
    1.3813    3.3825    0.0000 C   0  0  0  0  0  0  0  0  0  0  0  0
   -0.0476    0.9075    0.0000 C   0  0  0  0  0  0  0  0  0  0  0  0
   -0.7621    1.3200    0.0000 O   0  0  0  0  0  0  0  0  0  0  0  0
  1  2  1  0  0  0  0
  2  3  1  0  0  0  0
  3  4  1  0  0  0  0
  2  5  1  0  0  0  0
  6  5  2  0  0  0  0
  7  6  1  0  0  0  0
  8  7  2  0  0  0  0
  9  8  1  0  0  0  0
  9 10  1  0  0  0  0
 10 11  1  0  0  0  0
 10 12  1  0  0  0  0
 12 13  1  0  0  0  0
 14  9  2  0  0  0  0
  5 14  1  0  0  0  0
 14 15  1  0  0  0  0
M  END
> <RowID>
76

> <Original_SMILES>
CC(CC)C1=CC=CC(C(C)CC)=C1O

> <Canonical_QSARr>
CC(CC)C1=CC=CC(C(C)CC)=C1O

> <InChI_Code_QSARr>
InChI=1S/C14H22O/c1-5-10(3)12-8-7-9-13(14(12)15)11(4)6-2/h7-11,15H,5-6H2,1-4H3

> <InChI Key_QSARr>
FHTGJZOULSYEOB-UHFFFAOYSA-N

> <Salt_Solvent>


> <Salt_Solvent_ID>
0

> <Number of connected components>
1

$$$$
Molecule_77
  Mrv2316 01072400032D          

  8  8  0  0  0  0            999 V2000
    1.4609    2.7643    0.0000 N   0  0  0  0  0  0  0  0  0  0  0  0
    0.7464    2.3518    0.0000 C   0  0  0  0  0  0  0  0  0  0  0  0
    0.0319    1.9393    0.0000 N   0  0  0  0  0  0  0  0  0  0  0  0
    0.0319    1.1143    0.0000 C   0  0  0  0  0  0  0  0  0  0  0  0
   -0.6355    0.6294    0.0000 N   0  0  0  0  0  0  0  0  0  0  0  0
   -0.3806   -0.1553    0.0000 C   0  0  0  0  0  0  0  0  0  0  0  0
    0.4444   -0.1553    0.0000 C   0  0  0  0  0  0  0  0  0  0  0  0
    0.6994    0.6294    0.0000 S   0  0  0  0  0  0  0  0  0  0  0  0
  1  2  3  0  0  0  0
  2  3  1  0  0  0  0
  3  4  1  0  0  0  0
  5  4  2  0  0  0  0
  6  5  1  0  0  0  0
  7  6  1  0  0  0  0
  8  7  1  0  0  0  0
  4  8  1  0  0  0  0
M  END
> <RowID>
77

> <Original_SMILES>
N#CNC1=NCCS1

> <Canonical_QSARr>
N#CNC1=NCCS1

> <InChI_Code_QSARr>
InChI=1S/C4H5N3S/c5-3-7-4-6-1-2-8-4/h1-2H2,(H,6,7)

> <InChI Key_QSARr>
WTUAWWLVVCGTRG-UHFFFAOYSA-N

> <Salt_Solvent>


> <Salt_Solvent_ID>
0

> <Number of connected components>
1

$$$$
Molecule_78
  Mrv2316 01072400032D          

 13 13  0  0  0  0            999 V2000
   -0.7694    3.6808    0.0000 C   0  0  0  0  0  0  0  0  0  0  0  0
   -0.7694    2.8558    0.0000 C   0  0  0  0  0  0  0  0  0  0  0  0
   -1.4839    2.4433    0.0000 C   0  0  0  0  0  0  0  0  0  0  0  0
   -0.0550    2.4433    0.0000 C   0  0  0  0  0  0  0  0  0  0  0  0
   -0.0550    1.6183    0.0000 C   0  0  0  0  0  0  0  0  0  0  0  0
   -0.7694    1.2058    0.0000 C   0  0  0  0  0  0  0  0  0  0  0  0
    0.6595    1.2058    0.0000 C   0  0  0  0  0  0  0  0  0  0  0  0
    0.6595    0.3808    0.0000 C   0  0  0  0  0  0  0  0  0  0  0  0
    1.3740   -0.0317    0.0000 C   0  0  0  0  0  0  0  0  0  0  0  0
    2.0884    0.3808    0.0000 C   0  0  0  0  0  0  0  0  0  0  0  0
    2.0884    1.2058    0.0000 C   0  0  0  0  0  0  0  0  0  0  0  0
    1.3740    1.6183    0.0000 C   0  0  0  0  0  0  0  0  0  0  0  0
    1.3740    2.4433    0.0000 N   0  0  0  0  0  0  0  0  0  0  0  0
  1  2  1  0  0  0  0
  2  3  1  0  0  0  0
  2  4  1  0  0  0  0
  4  5  1  0  0  0  0
  5  6  1  0  0  0  0
  5  7  1  0  0  0  0
  8  7  1  0  0  0  0
  9  8  2  0  0  0  0
 10  9  1  0  0  0  0
 11 10  2  0  0  0  0
 12 11  1  0  0  0  0
  7 12  2  0  0  0  0
 12 13  1  0  0  0  0
M  END
> <RowID>
78

> <Original_SMILES>
CC(C)CC(C)C1C=CC=CC=1N

> <Canonical_QSARr>
CC(C)CC(C)C1C=CC=CC=1N

> <InChI_Code_QSARr>
InChI=1S/C12H19N/c1-9(2)8-10(3)11-6-4-5-7-12(11)13/h4-7,9-10H,8,13H2,1-3H3

> <InChI Key_QSARr>
LPZZJKBLKQOBMZ-UHFFFAOYSA-N

> <Salt_Solvent>


> <Salt_Solvent_ID>
0

> <Number of connected components>
1

$$$$
Molecule_79
  Mrv2316 01072400032D          

 14 13  0  0  0  0            999 V2000
   -1.2079    0.0000    0.0000 C   0  0  0  0  0  0  0  0  0  0  0  0
   -1.6204    0.7145    0.0000 C   0  0  0  0  0  0  0  0  0  0  0  0
   -2.0329    1.4290    0.0000 C   0  0  0  0  0  0  0  0  0  0  0  0
   -2.3349    0.3020    0.0000 C   0  0  0  0  0  0  0  0  0  0  0  0
   -3.0493    0.7145    0.0000 O   0  0  0  0  0  0  0  0  0  0  0  0
   -0.9059    1.1270    0.0000 C   0  0  0  0  0  0  0  0  0  0  0  0
   -0.9059    1.9520    0.0000 O   0  0  0  0  0  0  0  0  0  0  0  0
   -0.1914    0.7145    0.0000 C   0  0  0  0  0  0  0  0  0  0  0  0
   -0.1914   -0.1105    0.0000 O   0  0  0  0  0  0  0  0  0  0  0  0
    0.5230    1.1270    0.0000 N   0  0  0  0  0  0  0  0  0  0  0  0
    1.2375    0.7145    0.0000 C   0  0  0  0  0  0  0  0  0  0  0  0
    1.9520    1.1270    0.0000 C   0  0  0  0  0  0  0  0  0  0  0  0
    2.6664    0.7145    0.0000 C   0  0  0  0  0  0  0  0  0  0  0  0
    3.3809    1.1270    0.0000 O   0  0  0  0  0  0  0  0  0  0  0  0
  1  2  1  0  0  0  0
  2  3  1  0  0  0  0
  2  4  1  0  0  0  0
  4  5  1  0  0  0  0
  2  6  1  0  0  0  0
  6  7  1  0  0  0  0
  6  8  1  0  0  0  0
  8  9  2  0  0  0  0
  8 10  1  0  0  0  0
 10 11  1  0  0  0  0
 11 12  1  0  0  0  0
 12 13  1  0  0  0  0
 13 14  1  0  0  0  0
M  END
> <RowID>
79

> <Original_SMILES>
CC(C)(CO)C(O)C(=O)NCCCO

> <Canonical_QSARr>
CC(C)(CO)C(O)C(=O)NCCCO

> <InChI_Code_QSARr>
InChI=1S/C9H19NO4/c1-9(2,6-12)7(13)8(14)10-4-3-5-11/h7,11-13H,3-6H2,1-2H3,(H,10,14)

> <InChI Key_QSARr>
SNPLKNRPJHDVJA-UHFFFAOYSA-N

> <Salt_Solvent>


> <Salt_Solvent_ID>
0

> <Number of connected components>
1

$$$$
Molecule_81
  Mrv2316 01072400032D          

 13 13  0  0  0  0            999 V2000
   -1.5938    3.2048    0.0000 F   0  0  0  0  0  0  0  0  0  0  0  0
   -0.8794    2.7923    0.0000 C   0  0  0  0  0  0  0  0  0  0  0  0
   -1.2919    2.0778    0.0000 F   0  0  0  0  0  0  0  0  0  0  0  0
   -0.4669    3.5068    0.0000 F   0  0  0  0  0  0  0  0  0  0  0  0
   -0.1649    2.3798    0.0000 C   0  0  0  0  0  0  0  0  0  0  0  0
   -0.1649    1.5548    0.0000 O   0  0  0  0  0  0  0  0  0  0  0  0
    0.5496    1.1423    0.0000 C   0  0  0  0  0  0  0  0  0  0  0  0
    0.5496    0.3173    0.0000 C   0  0  0  0  0  0  0  0  0  0  0  0
    1.2641   -0.0952    0.0000 C   0  0  0  0  0  0  0  0  0  0  0  0
    1.9785    0.3173    0.0000 C   0  0  0  0  0  0  0  0  0  0  0  0
    1.9785    1.1423    0.0000 N   0  0  0  0  0  0  0  0  0  0  0  0
    1.2641    1.5548    0.0000 C   0  0  0  0  0  0  0  0  0  0  0  0
    1.2641    2.3798    0.0000 Cl  0  0  0  0  0  0  0  0  0  0  0  0
  1  2  1  0  0  0  0
  2  3  1  0  0  0  0
  2  4  1  0  0  0  0
  2  5  1  0  0  0  0
  5  6  1  0  0  0  0
  6  7  1  0  0  0  0
  8  7  2  0  0  0  0
  9  8  1  0  0  0  0
 10  9  2  0  0  0  0
 11 10  1  0  0  0  0
 12 11  2  0  0  0  0
  7 12  1  0  0  0  0
 12 13  1  0  0  0  0
M  END
> <RowID>
81

> <Original_SMILES>
FC(F)(F)COC1=CC=CN=C1Cl

> <Canonical_QSARr>
FC(F)(F)COC1=CC=CN=C1Cl

> <InChI_Code_QSARr>
InChI=1S/C7H5ClF3NO/c8-6-5(2-1-3-12-6)13-4-7(9,10)11/h1-3H,4H2

> <InChI Key_QSARr>
IUTMJBMTEOTFKB-UHFFFAOYSA-N

> <Salt_Solvent>


> <Salt_Solvent_ID>
0

> <Number of connected components>
1

$$$$
Molecule_82
  Mrv2316 01072400032D          

 28 28  0  0  0  0            999 V2000
   -5.6137    8.4268    0.0000 C   0  0  0  0  0  0  0  0  0  0  0  0
   -5.6137    7.6018    0.0000 C   0  0  0  0  0  0  0  0  0  0  0  0
   -4.8993    7.1893    0.0000 O   0  0  0  0  0  0  0  0  0  0  0  0
   -4.8993    6.3643    0.0000 C   0  0  0  0  0  0  0  0  0  0  0  0
   -4.1848    5.9518    0.0000 C   0  0  0  0  0  0  0  0  0  0  0  0
   -4.1848    5.1268    0.0000 O   0  0  0  0  0  0  0  0  0  0  0  0
   -3.4703    4.7143    0.0000 C   0  0  0  0  0  0  0  0  0  0  0  0
   -3.4703    3.8893    0.0000 C   0  0  0  0  0  0  0  0  0  0  0  0
   -2.7558    3.4768    0.0000 O   0  0  0  0  0  0  0  0  0  0  0  0
   -2.7558    2.6518    0.0000 C   0  0  0  0  0  0  0  0  0  0  0  0
   -3.4703    2.2393    0.0000 O   0  0  0  0  0  0  0  0  0  0  0  0
   -2.0414    2.2393    0.0000 C   0  0  0  0  0  0  0  0  0  0  0  0
   -2.0414    1.4143    0.0000 C   0  0  0  0  0  0  0  0  0  0  0  0
   -1.3269    1.0018    0.0000 C   0  0  0  0  0  0  0  0  0  0  0  0
   -0.6124    1.4143    0.0000 C   0  0  0  0  0  0  0  0  0  0  0  0
    0.1020    1.0018    0.0000 C   0  0  0  0  0  0  0  0  0  0  0  0
    0.1020    0.1768    0.0000 O   0  0  0  0  0  0  0  0  0  0  0  0
    0.8165    1.4143    0.0000 O   0  0  0  0  0  0  0  0  0  0  0  0
    1.5310    1.0018    0.0000 C   0  0  0  0  0  0  0  0  0  0  0  0
    2.2455    1.4143    0.0000 C   0  0  0  0  0  0  0  0  0  0  0  0
    2.9599    1.0018    0.0000 O   0  0  0  0  0  0  0  0  0  0  0  0
    3.6744    1.4143    0.0000 C   0  0  0  0  0  0  0  0  0  0  0  0
    4.3889    1.0018    0.0000 C   0  0  0  0  0  0  0  0  0  0  0  0
    5.1033    1.4143    0.0000 O   0  0  0  0  0  0  0  0  0  0  0  0
    5.8178    1.0018    0.0000 C   0  0  0  0  0  0  0  0  0  0  0  0
    6.5323    1.4143    0.0000 C   0  0  0  0  0  0  0  0  0  0  0  0
   -0.6124    2.2393    0.0000 C   0  0  0  0  0  0  0  0  0  0  0  0
   -1.3269    2.6518    0.0000 C   0  0  0  0  0  0  0  0  0  0  0  0
  1  2  1  0  0  0  0
  2  3  1  0  0  0  0
  3  4  1  0  0  0  0
  4  5  1  0  0  0  0
  5  6  1  0  0  0  0
  6  7  1  0  0  0  0
  7  8  1  0  0  0  0
  8  9  1  0  0  0  0
  9 10  1  0  0  0  0
 10 11  2  0  0  0  0
 10 12  1  0  0  0  0
 13 12  1  0  0  0  0
 14 13  1  0  0  0  0
 15 14  1  0  0  0  0
 15 16  1  0  0  0  0
 16 17  2  0  0  0  0
 16 18  1  0  0  0  0
 18 19  1  0  0  0  0
 19 20  1  0  0  0  0
 20 21  1  0  0  0  0
 21 22  1  0  0  0  0
 22 23  1  0  0  0  0
 23 24  1  0  0  0  0
 24 25  1  0  0  0  0
 25 26  1  0  0  0  0
 27 15  1  0  0  0  0
 28 27  1  0  0  0  0
 12 28  1  0  0  0  0
M  END
> <RowID>
82

> <Original_SMILES>
CCOCCOCCOC(=O)C1CCC(CC1)C(=O)OCCOCCOCC

> <Canonical_QSARr>
CCOCCOCCOC(=O)C1CCC(CC1)C(=O)OCCOCCOCC

> <InChI_Code_QSARr>
InChI=1S/C20H36O8/c1-3-23-9-11-25-13-15-27-19(21)17-5-7-18(8-6-17)20(22)28-16-14-26-12-10-24-4-2/h17-18H,3-16H2,1-2H3

> <InChI Key_QSARr>
JNFDQAYPZCYWLD-UHFFFAOYSA-N

> <Salt_Solvent>


> <Salt_Solvent_ID>
0

> <Number of connected components>
1

$$$$
Molecule_84
  Mrv2316 01072400032D          

 48 51  0  0  0  0            999 V2000
    1.5331   -9.8742    0.0000 C   0  0  0  0  0  0  0  0  0  0  0  0
    1.5331   -9.0492    0.0000 C   0  0  0  0  0  0  0  0  0  0  0  0
    0.8187   -8.6367    0.0000 O   0  0  0  0  0  0  0  0  0  0  0  0
    2.2476   -8.6367    0.0000 C   0  0  0  0  0  0  0  0  0  0  0  0
    2.2476   -7.8117    0.0000 N   0  0  0  0  0  0  0  0  0  0  0  0
    2.9621   -7.3992    0.0000 N   0  0  0  0  0  0  0  0  0  0  0  0
    2.9621   -6.5742    0.0000 C   0  0  0  0  0  0  0  0  0  0  0  0
    3.6766   -6.1617    0.0000 C   0  0  0  0  0  0  0  0  0  0  0  0
    3.6766   -5.3367    0.0000 C   0  0  0  0  0  0  0  0  0  0  0  0
    2.9621   -4.9242    0.0000 C   0  0  0  0  0  0  0  0  0  0  0  0
    2.9621   -4.0992    0.0000 C   0  0  0  0  0  0  0  0  0  0  0  0
    3.6766   -3.6867    0.0000 C   0  0  0  0  0  0  0  0  0  0  0  0
    3.6766   -2.8617    0.0000 C   0  0  0  0  0  0  0  0  0  0  0  0
    4.3910   -2.4492    0.0000 Cl  0  0  0  0  0  0  0  0  0  0  0  0
    2.9621   -2.4492    0.0000 C   0  0  0  0  0  0  0  0  0  0  0  0
    2.9621   -1.6242    0.0000 N   0  0  0  0  0  0  0  0  0  0  0  0
    3.6766   -1.2117    0.0000 N   0  0  0  0  0  0  0  0  0  0  0  0
    3.6766   -0.3867    0.0000 C   0  0  0  0  0  0  0  0  0  0  0  0
    4.3910    0.0258    0.0000 C   0  0  0  0  0  0  0  0  0  0  0  0
    5.1055   -0.3867    0.0000 O   0  0  0  0  0  0  0  0  0  0  0  0
    4.3910    0.8508    0.0000 N   0  0  0  0  0  0  0  0  0  0  0  0
    5.1055    1.2633    0.0000 C   0  0  0  0  0  0  0  0  0  0  0  0
    5.8200    0.8508    0.0000 C   0  0  0  0  0  0  0  0  0  0  0  0
    6.5344    1.2633    0.0000 C   0  0  0  0  0  0  0  0  0  0  0  0
    6.5344    2.0883    0.0000 C   0  0  0  0  0  0  0  0  0  0  0  0
    7.2489    2.5008    0.0000 O   0  0  0  0  0  0  0  0  0  0  0  0
    7.2489    3.3258    0.0000 C   0  0  0  0  0  0  0  0  0  0  0  0
    5.8200    2.5008    0.0000 C   0  0  0  0  0  0  0  0  0  0  0  0
    5.1055    2.0883    0.0000 C   0  0  0  0  0  0  0  0  0  0  0  0
    2.9621    0.0258    0.0000 C   0  0  0  0  0  0  0  0  0  0  0  0
    2.2476   -0.3867    0.0000 C   0  0  0  0  0  0  0  0  0  0  0  0
    2.9621    0.8508    0.0000 O   0  0  0  0  0  0  0  0  0  0  0  0
    2.2476   -2.8617    0.0000 C   0  0  0  0  0  0  0  0  0  0  0  0
    2.2476   -3.6867    0.0000 C   0  0  0  0  0  0  0  0  0  0  0  0
    2.2476   -5.3367    0.0000 C   0  0  0  0  0  0  0  0  0  0  0  0
    2.2476   -6.1617    0.0000 C   0  0  0  0  0  0  0  0  0  0  0  0
    1.5331   -6.5742    0.0000 Cl  0  0  0  0  0  0  0  0  0  0  0  0
    2.9621   -9.0492    0.0000 C   0  0  0  0  0  0  0  0  0  0  0  0
    3.6766   -8.6367    0.0000 O   0  0  0  0  0  0  0  0  0  0  0  0
    2.9621   -9.8742    0.0000 N   0  0  0  0  0  0  0  0  0  0  0  0
    3.6766  -10.2867    0.0000 C   0  0  0  0  0  0  0  0  0  0  0  0
    3.6766  -11.1117    0.0000 C   0  0  0  0  0  0  0  0  0  0  0  0
    4.3910  -11.5242    0.0000 C   0  0  0  0  0  0  0  0  0  0  0  0
    5.1055  -11.1117    0.0000 C   0  0  0  0  0  0  0  0  0  0  0  0
    5.8200  -11.5242    0.0000 O   0  0  0  0  0  0  0  0  0  0  0  0
    5.8200  -12.3492    0.0000 C   0  0  0  0  0  0  0  0  0  0  0  0
    5.1055  -10.2867    0.0000 C   0  0  0  0  0  0  0  0  0  0  0  0
    4.3910   -9.8742    0.0000 C   0  0  0  0  0  0  0  0  0  0  0  0
  1  2  1  0  0  0  0
  2  3  2  0  0  0  0
  2  4  1  0  0  0  0
  5  4  1  4  0  0  0
  5  6  2  0  0  0  0
  6  7  1  0  0  0  0
  8  7  2  0  0  0  0
  9  8  1  0  0  0  0
 10  9  2  0  0  0  0
 10 11  1  0  0  0  0
 12 11  2  0  0  0  0
 13 12  1  0  0  0  0
 13 14  1  0  0  0  0
 15 13  2  0  0  0  0
 16 15  1  4  0  0  0
 16 17  2  0  0  0  0
 17 18  1  0  0  0  0
 18 19  1  0  0  0  0
 19 20  2  0  0  0  0
 19 21  1  0  0  0  0
 21 22  1  0  0  0  0
 23 22  1  0  0  0  0
 24 23  2  0  0  0  0
 25 24  1  0  0  0  0
 25 26  1  0  0  0  0
 26 27  1  0  0  0  0
 28 25  2  0  0  0  0
 29 28  1  0  0  0  0
 22 29  2  0  0  0  0
 18 30  1  0  0  0  0
 30 31  1  0  0  0  0
 30 32  2  0  0  0  0
 33 15  1  0  0  0  0
 34 33  2  0  0  0  0
 11 34  1  0  0  0  0
 35 10  1  0  0  0  0
 36 35  2  0  0  0  0
  7 36  1  0  0  0  0
 36 37  1  0  0  0  0
  4 38  1  0  0  0  0
 38 39  2  0  0  0  0
 38 40  1  0  0  0  0
 40 41  1  0  0  0  0
 42 41  1  0  0  0  0
 43 42  2  0  0  0  0
 44 43  1  0  0  0  0
 44 45  1  0  0  0  0
 45 46  1  0  0  0  0
 47 44  2  0  0  0  0
 48 47  1  0  0  0  0
 41 48  2  0  0  0  0
M  END
> <RowID>
84

> <Original_SMILES>
CC(=O)C(N=NC1=CC=C(C=C1Cl)C1=CC(Cl)=C(C=C1)N=NC(C(=O)NC1C=CC(=CC=1)OC)C(C)=O)C(=O)NC1C=CC(=CC=1)OC

> <Canonical_QSARr>
CC(=O)C(N=NC1=CC=C(C=C1Cl)C1=CC(Cl)=C(C=C1)N=NC(C(=O)NC1C=CC(=CC=1)OC)C(C)=O)C(=O)NC1C=CC(=CC=1)OC

> <InChI_Code_QSARr>
InChI=1S/C34H30Cl2N6O6/c1-19(43)31(33(45)37-23-7-11-25(47-3)12-8-23)41-39-29-15-5-21(17-27(29)35)22-6-16-30(28(36)18-22)40-42-32(20(2)44)34(46)38-24-9-13-26(48-4)14-10-24/h5-18,31-32H,1-4H3,(H,37,45)(H,38,46)

> <InChI Key_QSARr>
HPYOHJMBDBVTMT-UHFFFAOYSA-N

> <Salt_Solvent>


> <Salt_Solvent_ID>
0

> <Number of connected components>
1

$$$$
Molecule_85
  Mrv2316 01072400032D          

 22 23  0  0  0  0            999 V2000
    0.5846   -9.3000    0.0000 C   0  0  0  0  0  0  0  0  0  0  0  0
    0.5846   -8.4750    0.0000 N   0  0  0  0  0  0  0  0  0  0  0  0
    1.2990   -8.0625    0.0000 C   0  0  0  0  0  0  0  0  0  0  0  0
    1.2990   -7.2375    0.0000 C   0  0  0  0  0  0  0  0  0  0  0  0
    0.5846   -6.8250    0.0000 N   0  0  0  0  0  0  0  0  0  0  0  0
    0.5846   -6.0000    0.0000 S   0  0  0  0  0  0  0  0  0  0  0  0
    1.4096   -6.0000    0.0000 O   0  0  0  0  0  0  0  0  0  0  0  0
   -0.2404   -6.0000    0.0000 O   0  0  0  0  0  0  0  0  0  0  0  0
    0.5846   -5.1750    0.0000 C   0  0  0  0  0  0  0  0  0  0  0  0
    1.2990   -4.7625    0.0000 C   0  0  0  0  0  0  0  0  0  0  0  0
    1.2990   -3.9375    0.0000 C   0  0  0  0  0  0  0  0  0  0  0  0
    2.0135   -3.5250    0.0000 C   0  0  0  0  0  0  0  0  0  0  0  0
    2.0135   -2.7000    0.0000 O   0  0  0  0  0  0  0  0  0  0  0  0
    2.7280   -3.9375    0.0000 O   0  0  0  0  0  0  0  0  0  0  0  0
    0.5846   -3.5250    0.0000 C   0  0  0  0  0  0  0  0  0  0  0  0
    0.5846   -2.7000    0.0000 O   0  0  0  0  0  0  0  0  0  0  0  0
    1.2990   -2.2875    0.0000 C   0  0  0  0  0  0  0  0  0  0  0  0
    1.2990   -1.4625    0.0000 C   0  0  0  0  0  0  0  0  0  0  0  0
   -0.1299   -3.9375    0.0000 C   0  0  0  0  0  0  0  0  0  0  0  0
   -0.1299   -4.7625    0.0000 C   0  0  0  0  0  0  0  0  0  0  0  0
   -0.1299   -7.2375    0.0000 C   0  0  0  0  0  0  0  0  0  0  0  0
   -0.1299   -8.0625    0.0000 C   0  0  0  0  0  0  0  0  0  0  0  0
  1  2  1  0  0  0  0
  3  2  1  0  0  0  0
  4  3  1  0  0  0  0
  5  4  1  0  0  0  0
  5  6  1  0  0  0  0
  6  7  2  0  0  0  0
  6  8  2  0  0  0  0
  6  9  1  0  0  0  0
 10  9  2  0  0  0  0
 11 10  1  0  0  0  0
 11 12  1  0  0  0  0
 12 13  1  0  0  0  0
 12 14  2  0  0  0  0
 15 11  2  0  0  0  0
 15 16  1  0  0  0  0
 16 17  1  0  0  0  0
 17 18  1  0  0  0  0
 19 15  1  0  0  0  0
 20 19  2  0  0  0  0
  9 20  1  0  0  0  0
 21  5  1  0  0  0  0
 22 21  1  0  0  0  0
  2 22  1  0  0  0  0
M  END
> <RowID>
85

> <Original_SMILES>
CN1CCN(CC1)S(=O)(=O)C1=CC(C(O)=O)=C(C=C1)OCC

> <Canonical_QSARr>
CN1CCN(CC1)S(=O)(=O)C1=CC(C(O)=O)=C(C=C1)OCC

> <InChI_Code_QSARr>
InChI=1S/C14H20N2O5S/c1-3-21-13-5-4-11(10-12(13)14(17)18)22(19,20)16-8-6-15(2)7-9-16/h4-5,10H,3,6-9H2,1-2H3,(H,17,18)

> <InChI Key_QSARr>
TXKSEEXWAGLOIY-UHFFFAOYSA-N

> <Salt_Solvent>


> <Salt_Solvent_ID>
0

> <Number of connected components>
1

$$$$
Molecule_86
  Mrv2316 01072400032D          

 13 14  0  0  0  0            999 V2000
    2.0062   -4.3880    0.0000 C   0  0  0  0  0  0  0  0  0  0  0  0
    1.5213   -3.7206    0.0000 C   0  0  0  0  0  0  0  0  0  0  0  0
    1.7762   -2.9360    0.0000 C   0  0  0  0  0  0  0  0  0  0  0  0
    1.1088   -2.4511    0.0000 C   0  0  0  0  0  0  0  0  0  0  0  0
    1.1088   -1.6261    0.0000 N   0  0  0  0  0  0  0  0  0  0  0  0
    0.4413   -2.9360    0.0000 N   0  0  0  0  0  0  0  0  0  0  0  0
   -0.3433   -2.6810    0.0000 C   0  0  0  0  0  0  0  0  0  0  0  0
   -0.5148   -1.8741    0.0000 C   0  0  0  0  0  0  0  0  0  0  0  0
   -1.2994   -1.6191    0.0000 C   0  0  0  0  0  0  0  0  0  0  0  0
   -1.9125   -2.1712    0.0000 C   0  0  0  0  0  0  0  0  0  0  0  0
   -1.7410   -2.9781    0.0000 C   0  0  0  0  0  0  0  0  0  0  0  0
   -0.9564   -3.2331    0.0000 C   0  0  0  0  0  0  0  0  0  0  0  0
    0.6963   -3.7206    0.0000 N   0  0  0  0  0  0  0  0  0  0  0  0
  1  2  1  0  0  0  0
  3  2  1  0  0  0  0
  4  3  2  0  0  0  0
  4  5  1  0  0  0  0
  6  4  1  0  0  0  0
  6  7  1  0  0  0  0
  8  7  1  0  0  0  0
  9  8  2  0  0  0  0
 10  9  1  0  0  0  0
 11 10  2  0  0  0  0
 12 11  1  0  0  0  0
  7 12  2  0  0  0  0
 13  6  1  0  0  0  0
  2 13  2  0  0  0  0
M  END
> <RowID>
86

> <Original_SMILES>
CC1C=C(N)N(N=1)C1C=CC=CC=1

> <Canonical_QSARr>
CC1C=C(N)N(N=1)C1C=CC=CC=1

> <InChI_Code_QSARr>
InChI=1S/C10H11N3/c1-8-7-10(11)13(12-8)9-5-3-2-4-6-9/h2-7H,11H2,1H3

> <InChI Key_QSARr>
FMKMKBLHMONXJM-UHFFFAOYSA-N

> <Salt_Solvent>


> <Salt_Solvent_ID>
0

> <Number of connected components>
1

$$$$
Molecule_87
  Mrv2316 01072400032D          

 46 48  0  0  0  0            999 V2000
    0.7145    0.4125    0.0000 C   0  0  0  0  0  0  0  0  0  0  0  0
    0.7145   -0.4125    0.0000 C   0  0  0  0  0  0  0  0  0  0  0  0
    0.0000   -0.8250    0.0000 C   0  0  0  0  0  0  0  0  0  0  0  0
    0.0000   -1.6500    0.0000 C   0  0  0  0  0  0  0  0  0  0  0  0
   -0.7145   -2.0625    0.0000 N   0  0  0  0  0  0  0  0  0  0  0  0
   -0.7145   -2.8875    0.0000 C   0  0  0  0  0  0  0  0  0  0  0  0
    0.0000   -3.3000    0.0000 O   0  0  0  0  0  0  0  0  0  0  0  0
   -1.4289   -3.3000    0.0000 C   0  0  0  0  0  0  0  0  0  0  0  0
   -1.4289   -4.1250    0.0000 N   0  0  0  0  0  0  0  0  0  0  0  0
   -2.1434   -4.5375    0.0000 N   0  0  0  0  0  0  0  0  0  0  0  0
   -2.1434   -5.3625    0.0000 C   0  0  0  0  0  0  0  0  0  0  0  0
   -2.8579   -5.7750    0.0000 C   0  0  0  0  0  0  0  0  0  0  0  0
   -2.8579   -6.6000    0.0000 C   0  0  0  0  0  0  0  0  0  0  0  0
   -3.5723   -7.0125    0.0000 C   0  0  0  0  0  0  0  0  0  0  0  0
   -3.5723   -7.8375    0.0000 O   0  0  0  0  0  0  0  0  0  0  0  0
   -4.2868   -6.6000    0.0000 O   0  0  0  0  0  0  0  0  0  0  0  0
   -2.1434   -7.0125    0.0000 C   0  0  0  0  0  0  0  0  0  0  0  0
   -1.4289   -6.6000    0.0000 C   0  0  0  0  0  0  0  0  0  0  0  0
   -1.4289   -5.7750    0.0000 C   0  0  0  0  0  0  0  0  0  0  0  0
   -0.7145   -5.3625    0.0000 Cl  0  0  0  0  0  0  0  0  0  0  0  0
   -2.1434   -2.8875    0.0000 C   0  0  0  0  0  0  0  0  0  0  0  0
   -2.8579   -3.3000    0.0000 C   0  0  0  0  0  0  0  0  0  0  0  0
   -2.1434   -2.0625    0.0000 O   0  0  0  0  0  0  0  0  0  0  0  0
    0.7145   -2.0625    0.0000 C   0  0  0  0  0  0  0  0  0  0  0  0
    0.7145   -2.8875    0.0000 C   0  0  0  0  0  0  0  0  0  0  0  0
    1.4289   -1.6500    0.0000 C   0  0  0  0  0  0  0  0  0  0  0  0
    1.4289   -0.8250    0.0000 C   0  0  0  0  0  0  0  0  0  0  0  0
    2.1434   -0.4125    0.0000 N   0  0  0  0  0  0  0  0  0  0  0  0
    2.1434    0.4125    0.0000 C   0  0  0  0  0  0  0  0  0  0  0  0
    1.4289    0.8250    0.0000 O   0  0  0  0  0  0  0  0  0  0  0  0
    2.8579    0.8250    0.0000 C   0  0  0  0  0  0  0  0  0  0  0  0
    2.8579    1.6500    0.0000 N   0  0  0  0  0  0  0  0  0  0  0  0
    3.5724    2.0625    0.0000 N   0  0  0  0  0  0  0  0  0  0  0  0
    3.5724    2.8875    0.0000 C   0  0  0  0  0  0  0  0  0  0  0  0
    4.2868    3.3000    0.0000 C   0  0  0  0  0  0  0  0  0  0  0  0
    4.2868    4.1250    0.0000 C   0  0  0  0  0  0  0  0  0  0  0  0
    5.0013    4.5375    0.0000 C   0  0  0  0  0  0  0  0  0  0  0  0
    5.0013    5.3625    0.0000 O   0  0  0  0  0  0  0  0  0  0  0  0
    5.7158    4.1250    0.0000 O   0  0  0  0  0  0  0  0  0  0  0  0
    3.5724    4.5375    0.0000 C   0  0  0  0  0  0  0  0  0  0  0  0
    2.8579    4.1250    0.0000 C   0  0  0  0  0  0  0  0  0  0  0  0
    2.8579    3.3000    0.0000 C   0  0  0  0  0  0  0  0  0  0  0  0
    2.1434    2.8875    0.0000 Cl  0  0  0  0  0  0  0  0  0  0  0  0
    3.5724    0.4125    0.0000 C   0  0  0  0  0  0  0  0  0  0  0  0
    4.2868    0.8250    0.0000 C   0  0  0  0  0  0  0  0  0  0  0  0
    3.5724   -0.4125    0.0000 O   0  0  0  0  0  0  0  0  0  0  0  0
  1  2  1  0  0  0  0
  3  2  1  0  0  0  0
  4  3  2  0  0  0  0
  4  5  1  0  0  0  0
  5  6  1  0  0  0  0
  6  7  2  0  0  0  0
  6  8  1  0  0  0  0
  9  8  1  4  0  0  0
  9 10  2  0  0  0  0
 10 11  1  0  0  0  0
 12 11  2  0  0  0  0
 13 12  1  0  0  0  0
 13 14  1  0  0  0  0
 14 15  1  0  0  0  0
 14 16  2  0  0  0  0
 17 13  2  0  0  0  0
 18 17  1  0  0  0  0
 19 18  2  0  0  0  0
 11 19  1  0  0  0  0
 19 20  1  0  0  0  0
  8 21  1  0  0  0  0
 21 22  1  0  0  0  0
 21 23  2  0  0  0  0
 24  4  1  0  0  0  0
 24 25  1  0  0  0  0
 26 24  2  0  0  0  0
 27 26  1  0  0  0  0
  2 27  2  0  0  0  0
 27 28  1  0  0  0  0
 28 29  1  0  0  0  0
 29 30  2  0  0  0  0
 29 31  1  0  0  0  0
 32 31  1  4  0  0  0
 32 33  2  0  0  0  0
 33 34  1  0  0  0  0
 35 34  2  0  0  0  0
 36 35  1  0  0  0  0
 36 37  1  0  0  0  0
 37 38  1  0  0  0  0
 37 39  2  0  0  0  0
 40 36  2  0  0  0  0
 41 40  1  0  0  0  0
 42 41  2  0  0  0  0
 34 42  1  0  0  0  0
 42 43  1  0  0  0  0
 31 44  1  0  0  0  0
 44 45  1  0  0  0  0
 44 46  2  0  0  0  0
M  END
> <RowID>
87

> <Original_SMILES>
CC1C=C(NC(=O)C(N=NC2=CC(=CC=C2Cl)C(O)=O)C(C)=O)C(C)=CC=1NC(=O)C(N=NC1=CC(=CC=C1Cl)C(O)=O)C(C)=O

> <Canonical_QSARr>
CC1C=C(NC(=O)C(N=NC2=CC(=CC=C2Cl)C(O)=O)C(C)=O)C(C)=CC=1NC(=O)C(N=NC1=CC(=CC=C1Cl)C(O)=O)C(C)=O

> <InChI_Code_QSARr>
InChI=1S/C30H26Cl2N6O8/c1-13-9-22(34-28(42)26(16(4)40)38-36-24-12-18(30(45)46)6-8-20(24)32)14(2)10-21(13)33-27(41)25(15(3)39)37-35-23-11-17(29(43)44)5-7-19(23)31/h5-12,25-26H,1-4H3,(H,33,41)(H,34,42)(H,43,44)(H,45,46)

> <InChI Key_QSARr>
MFNRAHKNWDJWME-UHFFFAOYSA-N

> <Salt_Solvent>


> <Salt_Solvent_ID>
0

> <Number of connected components>
1

$$$$
Molecule_88
  Mrv2316 01072400032D          

  6  5  0  0  0  0            999 V2000
    2.4750   -1.4289    0.0000 C   0  0  0  0  0  0  0  0  0  0  0  0
    2.0625   -0.7145    0.0000 C   0  0  0  0  0  0  0  0  0  0  0  0
    2.4750   -0.0000    0.0000 O   0  0  0  0  0  0  0  0  0  0  0  0
    1.2375   -0.7145    0.0000 O   0  0  0  0  0  0  0  0  0  0  0  0
    0.8250   -0.0000    0.0000 C   0  0  0  0  0  0  0  0  0  0  0  0
    0.0000   -0.0000    0.0000 C   0  0  0  0  0  0  0  0  0  0  0  0
  1  2  1  0  0  0  0
  2  3  2  0  0  0  0
  2  4  1  0  0  0  0
  4  5  1  0  0  0  0
  5  6  2  0  0  0  0
M  END
> <RowID>
88

> <Original_SMILES>
CC(=O)OC=C

> <Canonical_QSARr>
CC(=O)OC=C

> <InChI_Code_QSARr>
InChI=1S/C4H6O2/c1-3-6-4(2)5/h3H,1H2,2H3

> <InChI Key_QSARr>
XTXRWKRVRITETP-UHFFFAOYSA-N

> <Salt_Solvent>


> <Salt_Solvent_ID>
0

> <Number of connected components>
1

$$$$
Molecule_89
  Mrv2316 01072400032D          

 11 11  0  0  0  0            999 V2000
    2.2733   -0.6375    0.0000 C   0  0  0  0  0  0  0  0  0  0  0  0
    1.5588   -0.2250    0.0000 O   0  0  0  0  0  0  0  0  0  0  0  0
    1.5588    0.6000    0.0000 C   0  0  0  0  0  0  0  0  0  0  0  0
    0.8444    1.0125    0.0000 C   0  0  0  0  0  0  0  0  0  0  0  0
    0.8444    1.8375    0.0000 C   0  0  0  0  0  0  0  0  0  0  0  0
    0.1299    2.2500    0.0000 C   0  0  0  0  0  0  0  0  0  0  0  0
    0.1299    3.0750    0.0000 N   0  0  0  0  0  0  0  0  0  0  0  0
   -0.5846    1.8375    0.0000 C   0  0  0  0  0  0  0  0  0  0  0  0
   -0.5846    1.0125    0.0000 C   0  0  0  0  0  0  0  0  0  0  0  0
    0.1299    0.6000    0.0000 C   0  0  0  0  0  0  0  0  0  0  0  0
    0.1299   -0.2250    0.0000 N   0  0  0  0  0  0  0  0  0  0  0  0
  1  2  1  0  0  0  0
  2  3  1  0  0  0  0
  3  4  1  0  0  0  0
  5  4  1  0  0  0  0
  6  5  2  0  0  0  0
  6  7  1  0  0  0  0
  8  6  1  0  0  0  0
  9  8  2  0  0  0  0
 10  9  1  0  0  0  0
  4 10  2  0  0  0  0
 10 11  1  0  0  0  0
M  END
> <RowID>
89

> <Original_SMILES>
COCC1C=C(N)C=CC=1N

> <Canonical_QSARr>
COCC1C=C(N)C=CC=1N

> <InChI_Code_QSARr>
InChI=1S/C8H12N2O/c1-11-5-6-4-7(9)2-3-8(6)10/h2-4H,5,9-10H2,1H3

> <InChI Key_QSARr>
AVKBLCWBDLLVRL-UHFFFAOYSA-N

> <Salt_Solvent>


> <Salt_Solvent_ID>
0

> <Number of connected components>
1

$$$$
Molecule_90
  Mrv2316 01072400032D          

  5  4  0  0  0  0            999 V2000
    2.4750   -1.4289    0.0000 C   0  0  0  0  0  0  0  0  0  0  0  0
    2.0625   -0.7145    0.0000 C   0  0  0  0  0  0  0  0  0  0  0  0
    1.2375   -0.7145    0.0000 C   0  0  0  0  0  0  0  0  0  0  0  0
    0.8250   -0.0000    0.0000 C   0  0  0  0  0  0  0  0  0  0  0  0
    0.0000   -0.0000    0.0000 Cl  0  0  0  0  0  0  0  0  0  0  0  0
  1  2  1  0  0  0  0
  2  3  1  0  0  0  0
  3  4  1  0  0  0  0
  4  5  1  0  0  0  0
M  END
> <RowID>
90

> <Original_SMILES>
CCCCCl

> <Canonical_QSARr>
CCCCCl

> <InChI_Code_QSARr>
InChI=1S/C4H9Cl/c1-2-3-4-5/h2-4H2,1H3

> <InChI Key_QSARr>
VFWCMGCRMGJXDK-UHFFFAOYSA-N

> <Salt_Solvent>


> <Salt_Solvent_ID>
0

> <Number of connected components>
1

$$$$
Molecule_91
  Mrv2316 01072400032D          

 14 15  0  0  0  0            999 V2000
    4.1570   -0.2791    0.0000 C   0  0  0  0  0  0  0  0  0  0  0  0
    3.7445    0.4353    0.0000 O   0  0  0  0  0  0  0  0  0  0  0  0
    2.9195    0.4353    0.0000 C   0  0  0  0  0  0  0  0  0  0  0  0
    2.5070    1.1498    0.0000 C   0  0  0  0  0  0  0  0  0  0  0  0
    1.6820    1.1498    0.0000 C   0  0  0  0  0  0  0  0  0  0  0  0
    1.2695    0.4353    0.0000 C   0  0  0  0  0  0  0  0  0  0  0  0
    0.7846    1.1028    0.0000 C   0  0  0  0  0  0  0  0  0  0  0  0
    1.0395    1.8874    0.0000 O   0  0  0  0  0  0  0  0  0  0  0  0
   -0.0000    0.8478    0.0000 N   0  0  0  0  0  0  0  0  0  0  0  0
   -0.0000    0.0228    0.0000 C   0  0  0  0  0  0  0  0  0  0  0  0
   -0.6675   -0.4621    0.0000 O   0  0  0  0  0  0  0  0  0  0  0  0
    0.7846   -0.2321    0.0000 N   0  0  0  0  0  0  0  0  0  0  0  0
    1.6820   -0.2791    0.0000 C   0  0  0  0  0  0  0  0  0  0  0  0
    2.5070   -0.2791    0.0000 C   0  0  0  0  0  0  0  0  0  0  0  0
  1  2  1  0  0  0  0
  2  3  1  0  0  0  0
  4  3  1  0  0  0  0
  5  4  1  0  0  0  0
  6  5  1  0  0  0  0
  7  6  1  0  0  0  0
  7  8  2  0  0  0  0
  9  7  1  0  0  0  0
 10  9  1  0  0  0  0
 10 11  2  0  0  0  0
 12 10  1  0  0  0  0
  6 12  1  0  0  0  0
 13  6  1  0  0  0  0
 14 13  1  0  0  0  0
  3 14  1  0  0  0  0
M  END
> <RowID>
91

> <Original_SMILES>
[HH].[Na+].COC1CCC2(CC1)NC(=O)NC2=O

> <Canonical_QSARr>
COC1CCC2(CC1)NC(=O)NC2=O

> <InChI_Code_QSARr>
InChI=1S/C9H14N2O3/c1-14-6-2-4-9(5-3-6)7(12)10-8(13)11-9/h6H,2-5H2,1H3,(H2,10,11,12,13)

> <InChI Key_QSARr>
UXORSOFXUKJTFE-UHFFFAOYSA-N

> <Salt_Solvent>
[HH].[Na+]

> <Salt_Solvent_ID>
60

> <Number of connected components>
3

$$$$
Molecule_92
  Mrv2316 01072400032D          

 31 32  0  0  0  0            999 V2000
    0.7145   -6.1077    0.0000 C   0  0  0  0  0  0  0  0  0  0  0  0
    0.7145   -5.2827    0.0000 C   0  0  0  0  0  0  0  0  0  0  0  0
    0.7145   -4.4577    0.0000 C   0  0  0  0  0  0  0  0  0  0  0  0
    0.0000   -4.0452    0.0000 C   0  0  0  0  0  0  0  0  0  0  0  0
   -0.7145   -4.4577    0.0000 C   0  0  0  0  0  0  0  0  0  0  0  0
   -1.4289   -4.0452    0.0000 O   0  0  0  0  0  0  0  0  0  0  0  0
   -0.7145   -5.2827    0.0000 O   0  0  0  0  0  0  0  0  0  0  0  0
    0.0000   -3.2202    0.0000 N   0  0  0  0  0  0  0  0  0  0  0  0
    0.7145   -2.8077    0.0000 C   0  0  0  0  0  0  0  0  0  0  0  0
    1.4289   -3.2202    0.0000 C   0  0  0  0  0  0  0  0  0  0  0  0
    2.1434   -3.6327    0.0000 F   0  0  0  0  0  0  0  0  0  0  0  0
    1.8414   -2.5057    0.0000 F   0  0  0  0  0  0  0  0  0  0  0  0
    1.0164   -3.9346    0.0000 F   0  0  0  0  0  0  0  0  0  0  0  0
    0.7145   -1.9827    0.0000 C   0  0  0  0  0  0  0  0  0  0  0  0
    1.4289   -1.5702    0.0000 C   0  0  0  0  0  0  0  0  0  0  0  0
    1.4289   -0.7452    0.0000 C   0  0  0  0  0  0  0  0  0  0  0  0
    0.7145   -0.3327    0.0000 C   0  0  0  0  0  0  0  0  0  0  0  0
    0.7145    0.4923    0.0000 C   0  0  0  0  0  0  0  0  0  0  0  0
    1.4289    0.9048    0.0000 C   0  0  0  0  0  0  0  0  0  0  0  0
    1.4289    1.7298    0.0000 C   0  0  0  0  0  0  0  0  0  0  0  0
    0.7145    2.1423    0.0000 C   0  0  0  0  0  0  0  0  0  0  0  0
    0.7145    2.9673    0.0000 S   0  0  0  0  0  0  0  0  0  0  0  0
    0.7145    3.7923    0.0000 O   0  0  0  0  0  0  0  0  0  0  0  0
    1.5395    2.9673    0.0000 O   0  0  0  0  0  0  0  0  0  0  0  0
   -0.1105    2.9673    0.0000 C   0  0  0  0  0  0  0  0  0  0  0  0
    0.0000    1.7298    0.0000 C   0  0  0  0  0  0  0  0  0  0  0  0
    0.0000    0.9048    0.0000 C   0  0  0  0  0  0  0  0  0  0  0  0
    0.0000   -0.7452    0.0000 C   0  0  0  0  0  0  0  0  0  0  0  0
    0.0000   -1.5702    0.0000 C   0  0  0  0  0  0  0  0  0  0  0  0
    1.5395   -5.2827    0.0000 F   0  0  0  0  0  0  0  0  0  0  0  0
   -0.1105   -5.2827    0.0000 C   0  0  0  0  0  0  0  0  0  0  0  0
  1  2  1  0  0  0  0
  2  3  1  0  0  0  0
  3  4  1  0  0  0  0
  4  5  1  0  0  0  0
  5  6  2  0  0  0  0
  5  7  1  0  0  0  0
  4  8  1  0  0  0  0
  8  9  1  0  0  0  0
  9 10  1  0  0  0  0
 10 11  1  0  0  0  0
 10 12  1  0  0  0  0
 10 13  1  0  0  0  0
  9 14  1  0  0  0  0
 15 14  2  0  0  0  0
 16 15  1  0  0  0  0
 17 16  2  0  0  0  0
 17 18  1  0  0  0  0
 19 18  2  0  0  0  0
 20 19  1  0  0  0  0
 21 20  2  0  0  0  0
 21 22  1  0  0  0  0
 22 23  2  0  0  0  0
 22 24  2  0  0  0  0
 22 25  1  0  0  0  0
 26 21  1  0  0  0  0
 27 26  2  0  0  0  0
 18 27  1  0  0  0  0
 28 17  1  0  0  0  0
 29 28  2  0  0  0  0
 14 29  1  0  0  0  0
  2 30  1  0  0  0  0
  2 31  1  0  0  0  0
M  END
> <RowID>
92

> <Original_SMILES>
CC(C)(F)CC(NC(C1C=CC(=CC=1)C1C=CC(=CC=1)S(C)(=O)=O)C(F)(F)F)C(O)=O.C1CCCCC1NC1CCCCC1

> <Canonical_QSARr>
CC(C)(F)CC(NC(C1C=CC(=CC=1)C1C=CC(=CC=1)S(C)(=O)=O)C(F)(F)F)C(O)=O

> <InChI_Code_QSARr>
InChI=1S/C21H23F4NO4S/c1-20(2,22)12-17(19(27)28)26-18(21(23,24)25)15-6-4-13(5-7-15)14-8-10-16(11-9-14)31(3,29)30/h4-11,17-18,26H,12H2,1-3H3,(H,27,28)

> <InChI Key_QSARr>
WPRRUCZQBUTYOE-UHFFFAOYSA-N

> <Salt_Solvent>
C1C(NC2CCCCC2)CCCC1

> <Salt_Solvent_ID>
4018

> <Number of connected components>
2

$$$$
Molecule_93
  Mrv2316 01072400032D          

 24 25  0  0  0  0            999 V2000
    1.6671   -1.8563    0.0000 O   0  0  0  0  0  0  0  0  0  0  0  0
    2.3816   -2.2688    0.0000 C   0  0  0  0  0  0  0  0  0  0  0  0
    2.3816   -3.0938    0.0000 C   0  0  0  0  0  0  0  0  0  0  0  0
    3.0960   -3.5062    0.0000 C   0  0  0  0  0  0  0  0  0  0  0  0
    3.8105   -3.0938    0.0000 C   0  0  0  0  0  0  0  0  0  0  0  0
    3.8105   -2.2688    0.0000 C   0  0  0  0  0  0  0  0  0  0  0  0
    3.0960   -1.8563    0.0000 C   0  0  0  0  0  0  0  0  0  0  0  0
    3.0960   -1.0313    0.0000 C   0  0  0  0  0  0  0  0  0  0  0  0
    3.8105   -0.6188    0.0000 N   0  0  0  0  0  0  0  0  0  0  0  0
    3.8105    0.2062    0.0000 C   0  0  0  0  0  0  0  0  0  0  0  0
    3.0960    0.6187    0.0000 C   0  0  0  0  0  0  0  0  0  0  0  0
    2.3816    1.0312    0.0000 N   0  0  0  0  0  0  0  0  0  0  0  0
    4.5250    0.6188    0.0000 C   0  0  0  0  0  0  0  0  0  0  0  0
    4.5250    1.4438    0.0000 N   0  0  0  0  0  0  0  0  0  0  0  0
    5.2395    1.8563    0.0000 C   0  0  0  0  0  0  0  0  0  0  0  0
    5.2395    2.6813    0.0000 C   0  0  0  0  0  0  0  0  0  0  0  0
    5.9539    3.0938    0.0000 C   0  0  0  0  0  0  0  0  0  0  0  0
    5.9539    3.9188    0.0000 C   0  0  0  0  0  0  0  0  0  0  0  0
    5.2395    4.3313    0.0000 C   0  0  0  0  0  0  0  0  0  0  0  0
    4.5250    3.9188    0.0000 C   0  0  0  0  0  0  0  0  0  0  0  0
    4.5250    3.0938    0.0000 C   0  0  0  0  0  0  0  0  0  0  0  0
    3.8105    2.6813    0.0000 O   0  0  0  0  0  0  0  0  0  0  0  0
    5.2395    0.2063    0.0000 C   0  0  0  0  0  0  0  0  0  0  0  0
    5.9539   -0.2062    0.0000 N   0  0  0  0  0  0  0  0  0  0  0  0
  1  2  1  0  0  0  0
  3  2  1  0  0  0  0
  4  3  2  0  0  0  0
  5  4  1  0  0  0  0
  6  5  2  0  0  0  0
  7  6  1  0  0  0  0
  2  7  2  0  0  0  0
  8  7  1  4  0  0  0
  8  9  2  0  0  0  0
 10  9  1  4  0  0  0
 10 11  1  0  0  0  0
 11 12  3  0  0  0  0
 10 13  2  0  0  0  0
 14 13  1  4  0  0  0
 14 15  2  0  0  0  0
 15 16  1  0  0  0  0
 17 16  1  0  0  0  0
 18 17  2  0  0  0  0
 19 18  1  0  0  0  0
 20 19  2  0  0  0  0
 21 20  1  0  0  0  0
 16 21  2  0  0  0  0
 21 22  1  0  0  0  0
 13 23  1  0  0  0  0
 23 24  3  0  0  0  0
M  END
> <RowID>
93

> <Original_SMILES>
[Ni+2].N#CC(N=CC1C=CC=CC=1[O-])=C(C#N)N=CC1C=CC=CC=1[O-]

> <Canonical_QSARr>
N#CC(N=CC1C=CC=CC=1O)=C(C#N)N=CC1C=CC=CC=1O

> <InChI_Code_QSARr>
InChI=1S/C18H12N4O2/c19-9-15(21-11-13-5-1-3-7-17(13)23)16(10-20)22-12-14-6-2-4-8-18(14)24/h1-8,11-12,23-24H

> <InChI Key_QSARr>
PSGXHCUDHIPKJP-UHFFFAOYSA-N

> <Salt_Solvent>
[Ni+2]

> <Salt_Solvent_ID>
280

> <Number of connected components>
2

$$$$
Molecule_94
  Mrv2316 01072400032D          

 15 17  0  0  0  0            999 V2000
    1.1270    2.5559    0.0000 O   0  0  0  0  0  0  0  0  0  0  0  0
    1.5395    1.8414    0.0000 P   0  0  0  0  0  0  0  0  0  0  0  0
    2.3645    1.8414    0.0000 O   0  0  0  0  0  0  0  0  0  0  0  0
    2.7770    1.1270    0.0000 C   0  0  0  0  0  0  0  0  0  0  0  0
    3.6020    1.1270    0.0000 C   0  0  0  0  0  0  0  0  0  0  0  0
    4.0145    0.4125    0.0000 C   0  0  0  0  0  0  0  0  0  0  0  0
    3.6020   -0.3020    0.0000 C   0  0  0  0  0  0  0  0  0  0  0  0
    2.7770   -0.3020    0.0000 C   0  0  0  0  0  0  0  0  0  0  0  0
    2.3645    0.4125    0.0000 C   0  0  0  0  0  0  0  0  0  0  0  0
    1.5395    0.4125    0.0000 C   0  0  0  0  0  0  0  0  0  0  0  0
    1.1270   -0.3020    0.0000 C   0  0  0  0  0  0  0  0  0  0  0  0
    0.3020   -0.3020    0.0000 C   0  0  0  0  0  0  0  0  0  0  0  0
   -0.1105    0.4125    0.0000 C   0  0  0  0  0  0  0  0  0  0  0  0
    0.3020    1.1270    0.0000 C   0  0  0  0  0  0  0  0  0  0  0  0
    1.1270    1.1270    0.0000 C   0  0  0  0  0  0  0  0  0  0  0  0
  1  2  2  0  0  0  0
  3  2  1  0  0  0  0
  4  3  1  0  0  0  0
  4  5  1  0  0  0  0
  5  6  2  0  0  0  0
  6  7  1  0  0  0  0
  7  8  2  0  0  0  0
  8  9  1  0  0  0  0
  9  4  2  0  0  0  0
 10  9  1  0  0  0  0
 10 11  1  0  0  0  0
 11 12  2  0  0  0  0
 12 13  1  0  0  0  0
 13 14  2  0  0  0  0
 14 15  1  0  0  0  0
  2 15  1  0  0  0  0
 15 10  2  0  0  0  0
M  END
> <RowID>
94

> <Original_SMILES>
O=P1OC2C=CC=CC=2C2C=CC=CC1=2

> <Canonical_QSARr>
O=P1OC2C=CC=CC=2C2C=CC=CC1=2

> <InChI_Code_QSARr>
InChI=1S/C12H9O2P/c13-15-12-8-4-2-6-10(12)9-5-1-3-7-11(9)14-15/h1-8,15H

> <InChI Key_QSARr>
VBQRUYIOTHNGOP-UHFFFAOYSA-N

> <Salt_Solvent>


> <Salt_Solvent_ID>
0

> <Number of connected components>
1

$$$$
Molecule_95
  Mrv2316 01072400032D          

 16 16  0  0  0  0            999 V2000
    0.5805    0.6445    0.0000 C   0  0  0  0  0  0  0  0  0  0  0  0
   -0.1340    0.2320    0.0000 O   0  0  0  0  0  0  0  0  0  0  0  0
   -0.1340   -0.5930    0.0000 C   0  0  0  0  0  0  0  0  0  0  0  0
   -0.8484   -1.0055    0.0000 C   0  0  0  0  0  0  0  0  0  0  0  0
   -0.8484   -1.8305    0.0000 C   0  0  0  0  0  0  0  0  0  0  0  0
   -0.1340   -2.2430    0.0000 C   0  0  0  0  0  0  0  0  0  0  0  0
   -0.1340   -3.0680    0.0000 N   0  3  0  0  0  0  0  0  0  0  0  0
   -0.8484   -3.4805    0.0000 O   0  5  0  0  0  0  0  0  0  0  0  0
    0.5805   -3.4805    0.0000 O   0  0  0  0  0  0  0  0  0  0  0  0
    0.5805   -1.8305    0.0000 C   0  0  0  0  0  0  0  0  0  0  0  0
    0.5805   -1.0055    0.0000 C   0  0  0  0  0  0  0  0  0  0  0  0
    1.2950   -0.5930    0.0000 O   0  0  0  0  0  0  0  0  0  0  0  0
    2.0095   -1.0055    0.0000 C   0  0  0  0  0  0  0  0  0  0  0  0
    2.7239   -0.5930    0.0000 C   0  0  0  0  0  0  0  0  0  0  0  0
    3.4384   -1.0055    0.0000 C   0  0  0  0  0  0  0  0  0  0  0  0
    4.1529   -0.5930    0.0000 Cl  0  0  0  0  0  0  0  0  0  0  0  0
  1  2  1  0  0  0  0
  2  3  1  0  0  0  0
  4  3  1  0  0  0  0
  5  4  2  0  0  0  0
  6  5  1  0  0  0  0
  6  7  1  0  0  0  0
  7  8  1  0  0  0  0
  7  9  2  0  0  0  0
 10  6  2  0  0  0  0
 11 10  1  0  0  0  0
  3 11  2  0  0  0  0
 11 12  1  0  0  0  0
 12 13  1  0  0  0  0
 13 14  1  0  0  0  0
 14 15  1  0  0  0  0
 15 16  1  0  0  0  0
M  CHG  2   7   1   8  -1
M  END
> <RowID>
95

> <Original_SMILES>
COC1C=CC(=CC=1OCCCCl)[N+]([O-])=O

> <Canonical_QSARr>
COC1C=CC(=CC=1OCCCCl)[N+]([O-])=O

> <InChI_Code_QSARr>
InChI=1S/C10H12ClNO4/c1-15-9-4-3-8(12(13)14)7-10(9)16-6-2-5-11/h3-4,7H,2,5-6H2,1H3

> <InChI Key_QSARr>
JHFBALWBVABSLF-UHFFFAOYSA-N

> <Salt_Solvent>


> <Salt_Solvent_ID>
0

> <Number of connected components>
1

$$$$
Molecule_96
  Mrv2316 01072400032D          

 12 12  0  0  0  0            999 V2000
   -2.6197    0.8250    0.0000 C   0  0  0  0  0  0  0  0  0  0  0  0
   -1.9053    1.2375    0.0000 C   0  0  0  0  0  0  0  0  0  0  0  0
   -1.1908    0.8250    0.0000 C   0  0  0  0  0  0  0  0  0  0  0  0
   -0.4763    1.2375    0.0000 C   0  0  0  0  0  0  0  0  0  0  0  0
    0.2382    0.8250    0.0000 C   0  0  0  0  0  0  0  0  0  0  0  0
    0.9526    1.2375    0.0000 C   0  0  0  0  0  0  0  0  0  0  0  0
    1.6671    0.8250    0.0000 C   0  0  0  0  0  0  0  0  0  0  0  0
    2.3816    1.2375    0.0000 C   0  0  0  0  0  0  0  0  0  0  0  0
    2.3816    2.0625    0.0000 C   0  0  0  0  0  0  0  0  0  0  0  0
    1.6671    2.4750    0.0000 C   0  0  0  0  0  0  0  0  0  0  0  0
    1.6671    3.3000    0.0000 O   0  0  0  0  0  0  0  0  0  0  0  0
    0.9526    2.0625    0.0000 O   0  0  0  0  0  0  0  0  0  0  0  0
  2  1  1  4  0  0  0
  2  3  2  0  0  0  0
  3  4  1  0  0  0  0
  4  5  1  0  0  0  0
  5  6  1  0  0  0  0
  7  6  1  0  0  0  0
  8  7  1  0  0  0  0
  9  8  1  0  0  0  0
 10  9  1  0  0  0  0
 10 11  2  0  0  0  0
 12 10  1  0  0  0  0
  6 12  1  0  0  0  0
M  END
> <RowID>
96

> <Original_SMILES>
CC=CCCC1CCCC(=O)O1

> <Canonical_QSARr>
CC=CCCC1CCCC(=O)O1

> <InChI_Code_QSARr>
InChI=1S/C10H16O2/c1-2-3-4-6-9-7-5-8-10(11)12-9/h2-3,9H,4-8H2,1H3

> <InChI Key_QSARr>
NBCMACYORPIYNY-UHFFFAOYSA-N

> <Salt_Solvent>


> <Salt_Solvent_ID>
0

> <Number of connected components>
1

$$$$
Molecule_97
  Mrv2316 01072400032D          

 16 15  0  0  0  0            999 V2000
    1.0461    1.4289    0.0000 C   0  0  0  0  0  0  0  0  0  0  0  0
    1.7605    1.8414    0.0000 C   0  0  0  0  0  0  0  0  0  0  0  0
    1.7605    2.6664    0.0000 C   0  0  0  0  0  0  0  0  0  0  0  0
    2.4750    1.4289    0.0000 C   0  0  0  0  0  0  0  0  0  0  0  0
    3.1895    1.8414    0.0000 C   0  0  0  0  0  0  0  0  0  0  0  0
    3.9039    1.4289    0.0000 C   0  0  0  0  0  0  0  0  0  0  0  0
    4.6184    1.8414    0.0000 C   0  0  0  0  0  0  0  0  0  0  0  0
    4.6184    2.6664    0.0000 C   0  0  0  0  0  0  0  0  0  0  0  0
    5.3329    1.4289    0.0000 C   0  0  0  0  0  0  0  0  0  0  0  0
    6.0474    1.8414    0.0000 C   0  0  0  0  0  0  0  0  0  0  0  0
    6.7618    1.4289    0.0000 C   0  0  0  0  0  0  0  0  0  0  0  0
    7.4763    1.8414    0.0000 C   0  0  0  0  0  0  0  0  0  0  0  0
    7.8888    1.1269    0.0000 C   0  0  0  0  0  0  0  0  0  0  0  0
    7.0638    2.5559    0.0000 O   0  0  0  0  0  0  0  0  0  0  0  0
    8.1908    2.2539    0.0000 C   0  0  0  0  0  0  0  0  0  0  0  0
    8.9052    2.6664    0.0000 C   0  0  0  0  0  0  0  0  0  0  0  0
  1  2  1  0  0  0  0
  2  3  1  0  0  0  0
  2  4  1  0  0  0  0
  4  5  1  0  0  0  0
  5  6  1  0  0  0  0
  6  7  1  0  0  0  0
  7  8  1  0  0  0  0
  7  9  1  0  0  0  0
  9 10  1  0  0  0  0
 10 11  1  0  0  0  0
 11 12  1  0  0  0  0
 12 13  1  0  0  0  0
 12 14  1  0  0  0  0
 12 15  1  0  0  0  0
 15 16  3  0  0  0  0
M  END
> <RowID>
97

> <Original_SMILES>
CC(C)CCCC(C)CCCC(C)(O)C#C

> <Canonical_QSARr>
CC(C)CCCC(C)CCCC(C)(O)C#C

> <InChI_Code_QSARr>
InChI=1S/C15H28O/c1-6-15(5,16)12-8-11-14(4)10-7-9-13(2)3/h1,13-14,16H,7-12H2,2-5H3

> <InChI Key_QSARr>
OWRXWSVBJIIORE-UHFFFAOYSA-N

> <Salt_Solvent>


> <Salt_Solvent_ID>
0

> <Number of connected components>
1

$$$$
Molecule_98
  Mrv2316 01072400032D          

 50 55  0  0  0  0            999 V2000
    2.0945   -8.0587    0.0000 C   0  0  0  0  0  0  0  0  0  0  0  0
    2.5070   -7.3442    0.0000 C   0  0  0  0  0  0  0  0  0  0  0  0
    3.2215   -7.7567    0.0000 C   0  0  0  0  0  0  0  0  0  0  0  0
    1.7926   -6.9317    0.0000 C   0  0  0  0  0  0  0  0  0  0  0  0
    2.9195   -6.6297    0.0000 O   0  0  0  0  0  0  0  0  0  0  0  0
    2.5070   -5.9153    0.0000 C   0  0  0  0  0  0  0  0  0  0  0  0
    1.6820   -5.9153    0.0000 O   0  0  0  0  0  0  0  0  0  0  0  0
    2.9195   -5.2008    0.0000 C   0  0  0  0  0  0  0  0  0  0  0  0
    2.5070   -4.4863    0.0000 C   0  0  0  0  0  0  0  0  0  0  0  0
    2.9195   -3.7718    0.0000 C   0  0  0  0  0  0  0  0  0  0  0  0
    2.5070   -3.0574    0.0000 C   0  0  0  0  0  0  0  0  0  0  0  0
    2.9195   -2.3429    0.0000 C   0  0  0  0  0  0  0  0  0  0  0  0
    2.5070   -1.6284    0.0000 C   0  0  0  0  0  0  0  0  0  0  0  0
    2.9195   -0.9140    0.0000 N   0  0  0  0  0  0  0  0  0  0  0  0
    3.7400   -0.8277    0.0000 C   0  0  0  0  0  0  0  0  0  0  0  0
    4.2920   -1.4408    0.0000 C   0  0  0  0  0  0  0  0  0  0  0  0
    4.0371   -2.2254    0.0000 C   0  0  0  0  0  0  0  0  0  0  0  0
    4.5891   -2.8385    0.0000 C   0  0  0  0  0  0  0  0  0  0  0  0
    5.3961   -2.6670    0.0000 C   0  0  0  0  0  0  0  0  0  0  0  0
    5.9481   -3.2801    0.0000 F   0  0  0  0  0  0  0  0  0  0  0  0
    5.6511   -1.8824    0.0000 C   0  0  0  0  0  0  0  0  0  0  0  0
    5.0990   -1.2693    0.0000 C   0  0  0  0  0  0  0  0  0  0  0  0
    3.9115   -0.0208    0.0000 C   0  0  0  0  0  0  0  0  0  0  0  0
    4.6652    0.3148    0.0000 C   0  0  0  0  0  0  0  0  0  0  0  0
    5.3327   -0.1701    0.0000 C   0  0  0  0  0  0  0  0  0  0  0  0
    6.0863    0.1654    0.0000 C   0  0  0  0  0  0  0  0  0  0  0  0
    6.1726    0.9859    0.0000 C   0  0  0  0  0  0  0  0  0  0  0  0
    5.5051    1.4708    0.0000 C   0  0  0  0  0  0  0  0  0  0  0  0
    4.7515    1.1353    0.0000 C   0  0  0  0  0  0  0  0  0  0  0  0
    3.1971    0.3917    0.0000 C   0  0  0  0  0  0  0  0  0  0  0  0
    3.1108    1.2122    0.0000 C   0  0  0  0  0  0  0  0  0  0  0  0
    2.3572    1.5478    0.0000 O   0  0  0  0  0  0  0  0  0  0  0  0
    3.7783    1.6971    0.0000 N   0  0  0  0  0  0  0  0  0  0  0  0
    3.6920    2.5176    0.0000 C   0  0  0  0  0  0  0  0  0  0  0  0
    4.3595    3.0025    0.0000 C   0  0  0  0  0  0  0  0  0  0  0  0
    4.2732    3.8230    0.0000 C   0  0  0  0  0  0  0  0  0  0  0  0
    3.5196    4.1586    0.0000 C   0  0  0  0  0  0  0  0  0  0  0  0
    2.8521    3.6737    0.0000 C   0  0  0  0  0  0  0  0  0  0  0  0
    2.9384    2.8532    0.0000 C   0  0  0  0  0  0  0  0  0  0  0  0
    2.5840   -0.1603    0.0000 C   0  0  0  0  0  0  0  0  0  0  0  0
    1.7770    0.0112    0.0000 C   0  0  0  0  0  0  0  0  0  0  0  0
    1.2250   -0.6019    0.0000 C   0  0  0  0  0  0  0  0  0  0  0  0
    1.5221    0.7959    0.0000 C   0  0  0  0  0  0  0  0  0  0  0  0
    1.6820   -3.0574    0.0000 O   0  0  0  0  0  0  0  0  0  0  0  0
    1.2695   -3.7718    0.0000 C   0  0  0  0  0  0  0  0  0  0  0  0
    0.7846   -3.1044    0.0000 C   0  0  0  0  0  0  0  0  0  0  0  0
   -0.0000   -3.3593    0.0000 C   0  0  0  0  0  0  0  0  0  0  0  0
   -0.0000   -4.1843    0.0000 C   0  0  0  0  0  0  0  0  0  0  0  0
    0.7846   -4.4393    0.0000 C   0  0  0  0  0  0  0  0  0  0  0  0
    1.6820   -4.4863    0.0000 O   0  0  0  0  0  0  0  0  0  0  0  0
  1  2  1  0  0  0  0
  2  3  1  0  0  0  0
  2  4  1  0  0  0  0
  2  5  1  0  0  0  0
  5  6  1  0  0  0  0
  6  7  2  0  0  0  0
  6  8  1  0  0  0  0
  8  9  1  0  0  0  0
 10  9  1  0  0  0  0
 11 10  1  0  0  0  0
 11 12  1  0  0  0  0
 12 13  1  0  0  0  0
 13 14  1  0  0  0  0
 15 14  1  0  0  0  0
 15 16  1  0  0  0  0
 17 16  1  0  0  0  0
 18 17  2  0  0  0  0
 19 18  1  0  0  0  0
 19 20  1  0  0  0  0
 21 19  2  0  0  0  0
 22 21  1  0  0  0  0
 16 22  2  0  0  0  0
 23 15  2  0  0  0  0
 23 24  1  0  0  0  0
 25 24  1  0  0  0  0
 26 25  2  0  0  0  0
 27 26  1  0  0  0  0
 28 27  2  0  0  0  0
 29 28  1  0  0  0  0
 24 29  2  0  0  0  0
 30 23  1  0  0  0  0
 30 31  1  0  0  0  0
 31 32  2  0  0  0  0
 31 33  1  0  0  0  0
 33 34  1  0  0  0  0
 35 34  1  0  0  0  0
 36 35  2  0  0  0  0
 37 36  1  0  0  0  0
 38 37  2  0  0  0  0
 39 38  1  0  0  0  0
 34 39  2  0  0  0  0
 40 30  2  0  0  0  0
 14 40  1  0  0  0  0
 40 41  1  0  0  0  0
 41 42  1  0  0  0  0
 41 43  1  0  0  0  0
 44 11  1  0  0  0  0
 45 44  1  0  0  0  0
 46 45  1  0  0  0  0
 47 46  1  0  0  0  0
 48 47  1  0  0  0  0
 49 48  1  0  0  0  0
 45 49  1  0  0  0  0
 50 45  1  0  0  0  0
  9 50  1  0  0  0  0
M  END
> <RowID>
98

> <Original_SMILES>
CC(C)(C)OC(=O)CC1CC(CCN2C(=C(C(=C2C(C)C)C(=O)NC2C=CC=CC=2)C2C=CC=CC=2)C2C=CC(F)=CC=2)OC2(CCCC2)O1

> <Canonical_QSARr>
CC(C)(C)OC(=O)CC1CC(CCN2C(=C(C(=C2C(C)C)C(=O)NC2C=CC=CC=2)C2C=CC=CC=2)C2C=CC(F)=CC=2)OC2(CCCC2)O1

> <InChI_Code_QSARr>
InChI=1S/C42H49FN2O5/c1-28(2)38-37(40(47)44-32-16-10-7-11-17-32)36(29-14-8-6-9-15-29)39(30-18-20-31(43)21-19-30)45(38)25-22-33-26-34(27-35(46)50-41(3,4)5)49-42(48-33)23-12-13-24-42/h6-11,14-21,28,33-34H,12-13,22-27H2,1-5H3,(H,44,47)

> <InChI Key_QSARr>
MBKPYDSIECNPMH-UHFFFAOYSA-N

> <Salt_Solvent>


> <Salt_Solvent_ID>
0

> <Number of connected components>
1

$$$$
Molecule_99
  Mrv2316 01072400032D          

 27 29  0  0  0  0            999 V2000
   -2.5223    2.6664    0.0000 C   0  0  0  0  0  0  0  0  0  0  0  0
   -2.2673    1.8818    0.0000 O   0  0  0  0  0  0  0  0  0  0  0  0
   -1.4604    1.7103    0.0000 C   0  0  0  0  0  0  0  0  0  0  0  0
   -1.2054    0.9257    0.0000 N   0  0  0  0  0  0  0  0  0  0  0  0
   -0.3984    0.7541    0.0000 C   0  0  0  0  0  0  0  0  0  0  0  0
   -0.1435   -0.0305    0.0000 C   0  0  0  0  0  0  0  0  0  0  0  0
   -0.6284   -0.6979    0.0000 C   0  0  0  0  0  0  0  0  0  0  0  0
   -1.4534   -0.6979    0.0000 O   0  0  0  0  0  0  0  0  0  0  0  0
   -0.1435   -1.3654    0.0000 N   0  0  0  0  0  0  0  0  0  0  0  0
   -0.3984   -2.1500    0.0000 S   0  0  0  0  0  0  0  0  0  0  0  0
   -1.1831   -1.8950    0.0000 O   0  0  0  0  0  0  0  0  0  0  0  0
    0.3862   -2.4049    0.0000 O   0  0  0  0  0  0  0  0  0  0  0  0
   -0.6534   -2.9346    0.0000 C   0  0  0  0  0  0  0  0  0  0  0  0
   -0.1013   -3.5477    0.0000 F   0  0  0  0  0  0  0  0  0  0  0  0
   -1.4604   -3.1061    0.0000 F   0  0  0  0  0  0  0  0  0  0  0  0
    0.6411   -1.1104    0.0000 C   0  0  0  0  0  0  0  0  0  0  0  0
    0.6411   -0.2854    0.0000 C   0  0  0  0  0  0  0  0  0  0  0  0
    1.3556    0.1271    0.0000 C   0  0  0  0  0  0  0  0  0  0  0  0
    2.0701   -0.2854    0.0000 C   0  0  0  0  0  0  0  0  0  0  0  0
    2.0701   -1.1104    0.0000 C   0  0  0  0  0  0  0  0  0  0  0  0
    1.3556   -1.5229    0.0000 C   0  0  0  0  0  0  0  0  0  0  0  0
    1.3556   -2.3479    0.0000 F   0  0  0  0  0  0  0  0  0  0  0  0
    0.1536    1.3672    0.0000 N   0  0  0  0  0  0  0  0  0  0  0  0
   -0.1013    2.1519    0.0000 C   0  0  0  0  0  0  0  0  0  0  0  0
    0.4507    2.7649    0.0000 O   0  0  0  0  0  0  0  0  0  0  0  0
    0.1957    3.5496    0.0000 C   0  0  0  0  0  0  0  0  0  0  0  0
   -0.9083    2.3234    0.0000 N   0  0  0  0  0  0  0  0  0  0  0  0
  1  2  1  0  0  0  0
  2  3  1  0  0  0  0
  4  3  1  0  0  0  0
  5  4  2  0  0  0  0
  5  6  1  0  0  0  0
  7  6  2  0  0  0  0
  7  8  1  0  0  0  0
  9  7  1  0  0  0  0
  9 10  1  0  0  0  0
 10 11  2  0  0  0  0
 10 12  2  0  0  0  0
 10 13  1  0  0  0  0
 13 14  1  0  0  0  0
 13 15  1  0  0  0  0
 16  9  1  0  0  0  0
 16 17  1  0  0  0  0
  6 17  1  0  0  0  0
 17 18  2  0  0  0  0
 18 19  1  0  0  0  0
 19 20  2  0  0  0  0
 20 21  1  0  0  0  0
 21 16  2  0  0  0  0
 21 22  1  0  0  0  0
 23  5  1  0  0  0  0
 24 23  2  0  0  0  0
 24 25  1  0  0  0  0
 25 26  1  0  0  0  0
 27 24  1  0  0  0  0
  3 27  2  0  0  0  0
M  END
> <RowID>
99

> <Original_SMILES>
COC1N=C(N=C(N=1)OC)C1=C(O)N(C2C1=CC=CC=2F)S(=O)(=O)C(F)F

> <Canonical_QSARr>
COC1N=C(N=C(N=1)OC)C1=C(O)N(C2C1=CC=CC=2F)S(=O)(=O)C(F)F

> <InChI_Code_QSARr>
InChI=1S/C14H11F3N4O5S/c1-25-13-18-10(19-14(20-13)26-2)8-6-4-3-5-7(15)9(6)21(11(8)22)27(23,24)12(16)17/h3-5,12,22H,1-2H3

> <InChI Key_QSARr>
HHKJGYRGHDZKKW-UHFFFAOYSA-N

> <Salt_Solvent>


> <Salt_Solvent_ID>
0

> <Number of connected components>
1

$$$$
Molecule_100
  Mrv2316 01072400032D          

 10 11  0  0  0  0            999 V2000
   -0.0404   -0.2549    0.0000 O   0  0  0  0  0  0  0  0  0  0  0  0
    0.7846   -0.2549    0.0000 C   0  0  0  0  0  0  0  0  0  0  0  0
    1.2695    0.4125    0.0000 N   0  0  0  0  0  0  0  0  0  0  0  0
    2.0542    0.1576    0.0000 C   0  0  0  0  0  0  0  0  0  0  0  0
    2.8388    0.4125    0.0000 N   0  0  0  0  0  0  0  0  0  0  0  0
    3.3237   -0.2549    0.0000 C   0  0  0  0  0  0  0  0  0  0  0  0
    4.1487   -0.2549    0.0000 O   0  0  0  0  0  0  0  0  0  0  0  0
    2.8388   -0.9224    0.0000 N   0  0  0  0  0  0  0  0  0  0  0  0
    2.0542   -0.6674    0.0000 C   0  0  0  0  0  0  0  0  0  0  0  0
    1.2695   -0.9224    0.0000 N   0  0  0  0  0  0  0  0  0  0  0  0
  1  2  2  0  0  0  0
  3  2  1  0  0  0  0
  4  3  1  0  0  0  0
  4  5  1  0  0  0  0
  5  6  1  0  0  0  0
  6  7  2  0  0  0  0
  6  8  1  0  0  0  0
  8  9  1  0  0  0  0
  9  4  1  0  0  0  0
 10  9  1  0  0  0  0
  2 10  1  0  0  0  0
M  END
> <RowID>
100

> <Original_SMILES>
O=C1NC2NC(=O)NC2N1

> <Canonical_QSARr>
O=C1NC2NC(=O)NC2N1

> <InChI_Code_QSARr>
InChI=1S/C4H6N4O2/c9-3-5-1-2(7-3)8-4(10)6-1/h1-2H,(H2,5,7,9)(H2,6,8,10)

> <InChI Key_QSARr>
VPVSTMAPERLKKM-UHFFFAOYSA-N

> <Salt_Solvent>


> <Salt_Solvent_ID>
0

> <Number of connected components>
1

$$$$
Molecule_101
  Mrv2316 01072400032D          

 46 51  0  0  0  0            999 V2000
    4.2844   -4.7585    0.0000 O   0  0  0  0  0  0  0  0  0  0  0  0
    3.8719   -5.4730    0.0000 P   0  0  0  0  0  0  0  0  0  0  0  0
    3.1575   -5.0605    0.0000 O   0  0  0  0  0  0  0  0  0  0  0  0
    3.1575   -4.2355    0.0000 C   0  0  0  0  0  0  0  0  0  0  0  0
    3.8719   -3.8230    0.0000 C   0  0  0  0  0  0  0  0  0  0  0  0
    3.8719   -2.9980    0.0000 C   0  0  0  0  0  0  0  0  0  0  0  0
    3.1575   -2.5855    0.0000 C   0  0  0  0  0  0  0  0  0  0  0  0
    3.1575   -1.7605    0.0000 C   0  0  0  0  0  0  0  0  0  0  0  0
    3.8719   -1.3480    0.0000 C   0  0  0  0  0  0  0  0  0  0  0  0
    3.8719   -0.5230    0.0000 C   0  0  0  0  0  0  0  0  0  0  0  0
    3.1575   -0.1105    0.0000 C   0  0  0  0  0  0  0  0  0  0  0  0
    3.1575    0.7145    0.0000 O   0  0  0  0  0  0  0  0  0  0  0  0
    2.4430    1.1270    0.0000 P   0  0  0  0  0  0  0  0  0  0  0  0
    2.8555    1.8415    0.0000 O   0  0  0  0  0  0  0  0  0  0  0  0
    1.7285    1.5395    0.0000 O   0  0  0  0  0  0  0  0  0  0  0  0
    1.7285    2.3645    0.0000 C   0  0  0  0  0  0  0  0  0  0  0  0
    2.4430    2.7770    0.0000 C   0  0  0  0  0  0  0  0  0  0  0  0
    2.4430    3.6020    0.0000 C   0  0  0  0  0  0  0  0  0  0  0  0
    1.7285    4.0145    0.0000 C   0  0  0  0  0  0  0  0  0  0  0  0
    1.0141    3.6020    0.0000 C   0  0  0  0  0  0  0  0  0  0  0  0
    1.0141    2.7770    0.0000 C   0  0  0  0  0  0  0  0  0  0  0  0
    2.0305    0.4125    0.0000 O   0  0  0  0  0  0  0  0  0  0  0  0
    1.2055    0.4125    0.0000 C   0  0  0  0  0  0  0  0  0  0  0  0
    0.7930    1.1270    0.0000 C   0  0  0  0  0  0  0  0  0  0  0  0
   -0.0320    1.1270    0.0000 C   0  0  0  0  0  0  0  0  0  0  0  0
   -0.4445    0.4125    0.0000 C   0  0  0  0  0  0  0  0  0  0  0  0
   -0.0320   -0.3020    0.0000 C   0  0  0  0  0  0  0  0  0  0  0  0
    0.7930   -0.3020    0.0000 C   0  0  0  0  0  0  0  0  0  0  0  0
    2.4430   -0.5230    0.0000 C   0  0  0  0  0  0  0  0  0  0  0  0
    2.4430   -1.3480    0.0000 C   0  0  0  0  0  0  0  0  0  0  0  0
    2.4430   -2.9980    0.0000 C   0  0  0  0  0  0  0  0  0  0  0  0
    2.4430   -3.8230    0.0000 C   0  0  0  0  0  0  0  0  0  0  0  0
    4.5864   -5.8855    0.0000 O   0  0  0  0  0  0  0  0  0  0  0  0
    5.3009   -5.4730    0.0000 C   0  0  0  0  0  0  0  0  0  0  0  0
    6.0154   -5.8855    0.0000 C   0  0  0  0  0  0  0  0  0  0  0  0
    6.7298   -5.4730    0.0000 C   0  0  0  0  0  0  0  0  0  0  0  0
    6.7298   -4.6480    0.0000 C   0  0  0  0  0  0  0  0  0  0  0  0
    6.0154   -4.2355    0.0000 C   0  0  0  0  0  0  0  0  0  0  0  0
    5.3009   -4.6480    0.0000 C   0  0  0  0  0  0  0  0  0  0  0  0
    3.4594   -6.1875    0.0000 O   0  0  0  0  0  0  0  0  0  0  0  0
    2.6344   -6.1875    0.0000 C   0  0  0  0  0  0  0  0  0  0  0  0
    2.2219   -5.4730    0.0000 C   0  0  0  0  0  0  0  0  0  0  0  0
    1.3969   -5.4730    0.0000 C   0  0  0  0  0  0  0  0  0  0  0  0
    0.9844   -6.1875    0.0000 C   0  0  0  0  0  0  0  0  0  0  0  0
    1.3969   -6.9020    0.0000 C   0  0  0  0  0  0  0  0  0  0  0  0
    2.2219   -6.9020    0.0000 C   0  0  0  0  0  0  0  0  0  0  0  0
  1  2  2  0  0  0  0
  2  3  1  0  0  0  0
  3  4  1  0  0  0  0
  5  4  1  0  0  0  0
  6  5  2  0  0  0  0
  7  6  1  0  0  0  0
  7  8  1  0  0  0  0
  9  8  1  0  0  0  0
 10  9  2  0  0  0  0
 11 10  1  0  0  0  0
 11 12  1  0  0  0  0
 12 13  1  0  0  0  0
 13 14  2  0  0  0  0
 13 15  1  0  0  0  0
 15 16  1  0  0  0  0
 17 16  1  0  0  0  0
 18 17  2  0  0  0  0
 19 18  1  0  0  0  0
 20 19  2  0  0  0  0
 21 20  1  0  0  0  0
 16 21  2  0  0  0  0
 13 22  1  0  0  0  0
 22 23  1  0  0  0  0
 24 23  1  0  0  0  0
 25 24  2  0  0  0  0
 26 25  1  0  0  0  0
 27 26  2  0  0  0  0
 28 27  1  0  0  0  0
 23 28  2  0  0  0  0
 29 11  2  0  0  0  0
 30 29  1  0  0  0  0
  8 30  2  0  0  0  0
 31  7  2  0  0  0  0
 32 31  1  0  0  0  0
  4 32  2  0  0  0  0
  2 33  1  0  0  0  0
 33 34  1  0  0  0  0
 35 34  1  0  0  0  0
 36 35  2  0  0  0  0
 37 36  1  0  0  0  0
 38 37  2  0  0  0  0
 39 38  1  0  0  0  0
 34 39  2  0  0  0  0
  2 40  1  0  0  0  0
 40 41  1  0  0  0  0
 42 41  1  0  0  0  0
 43 42  2  0  0  0  0
 44 43  1  0  0  0  0
 45 44  2  0  0  0  0
 46 45  1  0  0  0  0
 41 46  2  0  0  0  0
M  END
> <RowID>
101

> <Original_SMILES>
O=P(OC1C=CC(=CC=1)C1C=CC(=CC=1)OP(=O)(OC1C=CC=CC=1)OC1C=CC=CC=1)(OC1C=CC=CC=1)OC1C=CC=CC=1

> <Canonical_QSARr>
O=P(OC1C=CC(=CC=1)C1C=CC(=CC=1)OP(=O)(OC1C=CC=CC=1)OC1C=CC=CC=1)(OC1C=CC=CC=1)OC1C=CC=CC=1

> <InChI_Code_QSARr>
InChI=1S/C36H28O8P2/c37-45(39-31-13-5-1-6-14-31,40-32-15-7-2-8-16-32)43-35-25-21-29(22-26-35)30-23-27-36(28-24-30)44-46(38,41-33-17-9-3-10-18-33)42-34-19-11-4-12-20-34/h1-28H

> <InChI Key_QSARr>
GXLTXCWSKKOKIR-UHFFFAOYSA-N

> <Salt_Solvent>


> <Salt_Solvent_ID>
0

> <Number of connected components>
1

$$$$
Molecule_102
  Mrv2316 01072400032D          

 10  9  0  0  0  0            999 V2000
    1.6500    1.4290    0.0000 C   0  0  0  0  0  0  0  0  0  0  0  0
    1.2375    0.7145    0.0000 Si  0  0  0  0  0  0  0  0  0  0  0  0
    0.5230    1.1270    0.0000 C   0  0  0  0  0  0  0  0  0  0  0  0
   -0.1914    0.7145    0.0000 C   0  0  0  0  0  0  0  0  0  0  0  0
   -0.9059    1.1270    0.0000 C   0  0  0  0  0  0  0  0  0  0  0  0
   -1.6204    0.7145    0.0000 Cl  0  0  0  0  0  0  0  0  0  0  0  0
    1.9520    0.3020    0.0000 O   0  0  0  0  0  0  0  0  0  0  0  0
    2.6664    0.7145    0.0000 C   0  0  0  0  0  0  0  0  0  0  0  0
    0.8250    0.0000    0.0000 O   0  0  0  0  0  0  0  0  0  0  0  0
   -0.0000    0.0000    0.0000 C   0  0  0  0  0  0  0  0  0  0  0  0
  1  2  1  0  0  0  0
  2  3  1  0  0  0  0
  3  4  1  0  0  0  0
  4  5  1  0  0  0  0
  5  6  1  0  0  0  0
  2  7  1  0  0  0  0
  7  8  1  0  0  0  0
  2  9  1  0  0  0  0
  9 10  1  0  0  0  0
M  END
> <RowID>
102

> <Original_SMILES>
C[Si](CCCCl)(OC)OC

> <Canonical_QSARr>
C[Si](CCCCl)(OC)OC

> <InChI_Code_QSARr>
InChI=1S/C6H15ClO2Si/c1-8-10(3,9-2)6-4-5-7/h4-6H2,1-3H3

> <InChI Key_QSARr>
KNTKCYKJRSMRMZ-UHFFFAOYSA-N

> <Salt_Solvent>


> <Salt_Solvent_ID>
0

> <Number of connected components>
1

$$$$
Molecule_103
  Mrv2316 01072400032D          

 36 39  0  0  0  0            999 V2000
   -6.6189   -9.8501    0.0000 C   0  0  0  0  0  0  0  0  0  0  0  0
   -5.7939   -9.8501    0.0000 C   0  0  0  0  0  0  0  0  0  0  0  0
   -4.9689   -9.8501    0.0000 C   0  0  0  0  0  0  0  0  0  0  0  0
   -5.7939   -9.0251    0.0000 C   0  0  0  0  0  0  0  0  0  0  0  0
   -5.0794   -8.6126    0.0000 C   0  0  0  0  0  0  0  0  0  0  0  0
   -5.0794   -7.7876    0.0000 C   0  0  0  0  0  0  0  0  0  0  0  0
   -5.7939   -7.3751    0.0000 C   0  0  0  0  0  0  0  0  0  0  0  0
   -5.7939   -6.5501    0.0000 C   0  0  0  0  0  0  0  0  0  0  0  0
   -5.7939   -5.7251    0.0000 C   0  0  0  0  0  0  0  0  0  0  0  0
   -5.7939   -4.9001    0.0000 C   0  0  0  0  0  0  0  0  0  0  0  0
   -6.5083   -4.4876    0.0000 C   0  0  0  0  0  0  0  0  0  0  0  0
   -6.5083   -3.6626    0.0000 N   0  0  0  0  0  0  0  0  0  0  0  0
   -5.7939   -3.2501    0.0000 C   0  0  0  0  0  0  0  0  0  0  0  0
   -5.7939   -2.4251    0.0000 C   0  0  0  0  0  0  0  0  0  0  0  0
   -6.5083   -2.0126    0.0000 C   0  0  0  0  0  0  0  0  0  0  0  0
   -6.5083   -1.1876    0.0000 C   0  0  0  0  0  0  0  0  0  0  0  0
   -5.6833   -1.1876    0.0000 O   0  0  0  0  0  0  0  0  0  0  0  0
   -6.5083   -0.3626    0.0000 C   0  0  0  0  0  0  0  0  0  0  0  0
   -5.7939    0.0499    0.0000 C   0  0  0  0  0  0  0  0  0  0  0  0
   -5.7939    0.8749    0.0000 C   0  0  0  0  0  0  0  0  0  0  0  0
   -6.5083    1.2874    0.0000 C   0  0  0  0  0  0  0  0  0  0  0  0
   -7.2228    0.8749    0.0000 C   0  0  0  0  0  0  0  0  0  0  0  0
   -7.2228    0.0499    0.0000 C   0  0  0  0  0  0  0  0  0  0  0  0
   -7.3333   -1.1876    0.0000 C   0  0  0  0  0  0  0  0  0  0  0  0
   -7.7458   -0.4731    0.0000 C   0  0  0  0  0  0  0  0  0  0  0  0
   -8.5708   -0.4731    0.0000 C   0  0  0  0  0  0  0  0  0  0  0  0
   -8.9833   -1.1876    0.0000 C   0  0  0  0  0  0  0  0  0  0  0  0
   -8.5708   -1.9020    0.0000 C   0  0  0  0  0  0  0  0  0  0  0  0
   -7.7458   -1.9020    0.0000 C   0  0  0  0  0  0  0  0  0  0  0  0
   -7.2228   -2.4251    0.0000 C   0  0  0  0  0  0  0  0  0  0  0  0
   -7.2228   -3.2501    0.0000 C   0  0  0  0  0  0  0  0  0  0  0  0
   -6.5083   -7.7876    0.0000 C   0  0  0  0  0  0  0  0  0  0  0  0
   -6.5083   -8.6126    0.0000 C   0  0  0  0  0  0  0  0  0  0  0  0
   -5.7939  -10.6751    0.0000 C   0  0  0  0  0  0  0  0  0  0  0  0
   -5.0794  -11.0876    0.0000 O   0  0  0  0  0  0  0  0  0  0  0  0
   -6.5083  -11.0876    0.0000 O   0  0  0  0  0  0  0  0  0  0  0  0
  1  2  1  0  0  0  0
  2  3  1  0  0  0  0
  2  4  1  0  0  0  0
  5  4  1  0  0  0  0
  6  5  2  0  0  0  0
  7  6  1  0  0  0  0
  7  8  1  0  0  0  0
  8  9  3  0  0  0  0
  9 10  1  0  0  0  0
 10 11  1  0  0  0  0
 11 12  1  0  0  0  0
 13 12  1  0  0  0  0
 14 13  1  0  0  0  0
 15 14  1  0  0  0  0
 15 16  1  0  0  0  0
 16 17  1  0  0  0  0
 16 18  1  0  0  0  0
 19 18  1  0  0  0  0
 20 19  2  0  0  0  0
 21 20  1  0  0  0  0
 22 21  2  0  0  0  0
 23 22  1  0  0  0  0
 18 23  2  0  0  0  0
 16 24  1  0  0  0  0
 25 24  1  0  0  0  0
 26 25  2  0  0  0  0
 27 26  1  0  0  0  0
 28 27  2  0  0  0  0
 29 28  1  0  0  0  0
 24 29  2  0  0  0  0
 30 15  1  0  0  0  0
 31 30  1  0  0  0  0
 12 31  1  0  0  0  0
 32  7  2  0  0  0  0
 33 32  1  0  0  0  0
  4 33  2  0  0  0  0
  2 34  1  0  0  0  0
 34 35  1  0  0  0  0
 34 36  2  0  0  0  0
M  END
> <RowID>
103

> <Original_SMILES>
CC(C)(C1C=CC(=CC=1)C#CCCN1CCC(CC1)C(O)(C1C=CC=CC=1)C1C=CC=CC=1)C(O)=O

> <Canonical_QSARr>
CC(C)(C1C=CC(=CC=1)C#CCCN1CCC(CC1)C(O)(C1C=CC=CC=1)C1C=CC=CC=1)C(O)=O

> <InChI_Code_QSARr>
InChI=1S/C32H35NO3/c1-31(2,30(34)35)26-18-16-25(17-19-26)11-9-10-22-33-23-20-29(21-24-33)32(36,27-12-5-3-6-13-27)28-14-7-4-8-15-28/h3-8,12-19,29,36H,10,20-24H2,1-2H3,(H,34,35)

> <InChI Key_QSARr>
LNQJRLLXDQRHIW-UHFFFAOYSA-N

> <Salt_Solvent>


> <Salt_Solvent_ID>
0

> <Number of connected components>
1

$$$$
Molecule_104
  Mrv2316 01072400032D          

 21 23  0  0  0  0            999 V2000
    1.4780   -4.9454    0.0000 C   0  0  0  0  0  0  0  0  0  0  0  0
    1.7329   -4.1608    0.0000 O   0  0  0  0  0  0  0  0  0  0  0  0
    1.1809   -3.5477    0.0000 C   0  0  0  0  0  0  0  0  0  0  0  0
    1.4358   -2.7631    0.0000 N   0  0  0  0  0  0  0  0  0  0  0  0
    0.8838   -2.1500    0.0000 C   0  0  0  0  0  0  0  0  0  0  0  0
    1.1387   -1.3654    0.0000 C   0  0  0  0  0  0  0  0  0  0  0  0
    0.6538   -0.6979    0.0000 C   0  0  0  0  0  0  0  0  0  0  0  0
   -0.1712   -0.6979    0.0000 O   0  0  0  0  0  0  0  0  0  0  0  0
    1.1387   -0.0305    0.0000 N   0  0  0  0  0  0  0  0  0  0  0  0
    1.9233   -0.2854    0.0000 C   0  0  0  0  0  0  0  0  0  0  0  0
    2.6378    0.1271    0.0000 C   0  0  0  0  0  0  0  0  0  0  0  0
    2.6378    0.9521    0.0000 F   0  0  0  0  0  0  0  0  0  0  0  0
    3.3523   -0.2854    0.0000 C   0  0  0  0  0  0  0  0  0  0  0  0
    3.3523   -1.1104    0.0000 C   0  0  0  0  0  0  0  0  0  0  0  0
    2.6378   -1.5229    0.0000 C   0  0  0  0  0  0  0  0  0  0  0  0
    1.9233   -1.1104    0.0000 C   0  0  0  0  0  0  0  0  0  0  0  0
    0.0768   -2.3215    0.0000 N   0  0  0  0  0  0  0  0  0  0  0  0
   -0.1781   -3.1061    0.0000 C   0  0  0  0  0  0  0  0  0  0  0  0
   -0.9851   -3.2777    0.0000 O   0  0  0  0  0  0  0  0  0  0  0  0
   -1.2400   -4.0623    0.0000 C   0  0  0  0  0  0  0  0  0  0  0  0
    0.3739   -3.7192    0.0000 N   0  0  0  0  0  0  0  0  0  0  0  0
  1  2  1  0  0  0  0
  2  3  1  0  0  0  0
  4  3  1  0  0  0  0
  5  4  2  0  0  0  0
  5  6  1  0  0  0  0
  7  6  1  0  0  0  0
  7  8  2  0  0  0  0
  9  7  1  0  0  0  0
 10  9  1  0  0  0  0
 10 11  1  0  0  0  0
 11 12  1  0  0  0  0
 11 13  2  0  0  0  0
 13 14  1  0  0  0  0
 14 15  2  0  0  0  0
 15 16  1  0  0  0  0
  6 16  1  0  0  0  0
 16 10  2  0  0  0  0
 17  5  1  0  0  0  0
 18 17  2  0  0  0  0
 18 19  1  0  0  0  0
 19 20  1  0  0  0  0
 21 18  1  0  0  0  0
  3 21  2  0  0  0  0
M  END
> <RowID>
104

> <Original_SMILES>
COC1N=C(N=C(N=1)OC)C1C(=O)NC2C(F)=CC=CC=21

> <Canonical_QSARr>
COC1N=C(N=C(N=1)OC)C1C(=O)NC2C(F)=CC=CC=21

> <InChI_Code_QSARr>
InChI=1S/C13H11FN4O3/c1-20-12-16-10(17-13(18-12)21-2)8-6-4-3-5-7(14)9(6)15-11(8)19/h3-5,8H,1-2H3,(H,15,19)

> <InChI Key_QSARr>
OMZXPZMWBLROGQ-UHFFFAOYSA-N

> <Salt_Solvent>


> <Salt_Solvent_ID>
0

> <Number of connected components>
1

$$$$
Molecule_105
  Mrv2316 01072400032D          

 13 12  0  0  0  0            999 V2000
    4.2355    3.2704    0.0000 O   0  0  0  0  0  0  0  0  0  0  0  0
    4.9500    2.8579    0.0000 C   0  0  0  0  0  0  0  0  0  0  0  0
    4.9500    2.0329    0.0000 O   0  0  0  0  0  0  0  0  0  0  0  0
    5.6645    3.2704    0.0000 C   0  0  0  0  0  0  0  0  0  0  0  0
    6.3789    2.8579    0.0000 C   0  0  0  0  0  0  0  0  0  0  0  0
    7.0934    3.2704    0.0000 C   0  0  0  0  0  0  0  0  0  0  0  0
    7.8079    2.8579    0.0000 C   0  0  0  0  0  0  0  0  0  0  0  0
    8.5224    3.2704    0.0000 C   0  0  0  0  0  0  0  0  0  0  0  0
    9.2368    2.8579    0.0000 C   0  0  0  0  0  0  0  0  0  0  0  0
    9.9513    3.2704    0.0000 C   0  0  0  0  0  0  0  0  0  0  0  0
   10.6658    2.8579    0.0000 C   0  0  0  0  0  0  0  0  0  0  0  0
   11.3802    3.2704    0.0000 O   0  0  0  0  0  0  0  0  0  0  0  0
   10.6658    2.0329    0.0000 O   0  0  0  0  0  0  0  0  0  0  0  0
  1  2  1  0  0  0  0
  2  3  2  0  0  0  0
  2  4  1  0  0  0  0
  4  5  1  0  0  0  0
  5  6  1  0  0  0  0
  6  7  1  0  0  0  0
  7  8  1  0  0  0  0
  8  9  1  0  0  0  0
  9 10  1  0  0  0  0
 10 11  1  0  0  0  0
 11 12  1  0  0  0  0
 11 13  2  0  0  0  0
M  END
> <RowID>
105

> <Original_SMILES>
OC(=O)CCCCCCCC(O)=O

> <Canonical_QSARr>
OC(=O)CCCCCCCC(O)=O

> <InChI_Code_QSARr>
InChI=1S/C9H16O4/c10-8(11)6-4-2-1-3-5-7-9(12)13/h1-7H2,(H,10,11)(H,12,13)

> <InChI Key_QSARr>
BDJRBEYXGGNYIS-UHFFFAOYSA-N

> <Salt_Solvent>


> <Salt_Solvent_ID>
0

> <Number of connected components>
1

$$$$
Molecule_106
  Mrv2316 01072400032D          

 11 10  0  0  0  0            999 V2000
   -0.6039   -3.3000    0.0000 C   0  0  0  0  0  0  0  0  0  0  0  0
   -0.6039   -2.4750    0.0000 C   0  0  0  0  0  0  0  0  0  0  0  0
   -1.3184   -2.0625    0.0000 O   0  0  0  0  0  0  0  0  0  0  0  0
    0.1105   -2.0625    0.0000 C   0  0  0  0  0  0  0  0  0  0  0  0
    0.1105   -1.2375    0.0000 C   0  0  0  0  0  0  0  0  0  0  0  0
   -0.6039   -0.8250    0.0000 O   0  0  0  0  0  0  0  0  0  0  0  0
    0.8250   -0.8250    0.0000 O   0  0  0  0  0  0  0  0  0  0  0  0
    0.8250   -0.0000    0.0000 C   0  0  0  0  0  0  0  0  0  0  0  0
    0.8250    0.8250    0.0000 C   0  0  0  0  0  0  0  0  0  0  0  0
    1.6500   -0.0000    0.0000 C   0  0  0  0  0  0  0  0  0  0  0  0
    0.0000   -0.0000    0.0000 C   0  0  0  0  0  0  0  0  0  0  0  0
  1  2  1  0  0  0  0
  2  3  2  0  0  0  0
  2  4  1  0  0  0  0
  4  5  1  0  0  0  0
  5  6  2  0  0  0  0
  5  7  1  0  0  0  0
  7  8  1  0  0  0  0
  8  9  1  0  0  0  0
  8 10  1  0  0  0  0
  8 11  1  0  0  0  0
M  END
> <RowID>
106

> <Original_SMILES>
CC(=O)CC(=O)OC(C)(C)C

> <Canonical_QSARr>
CC(=O)CC(=O)OC(C)(C)C

> <InChI_Code_QSARr>
InChI=1S/C8H14O3/c1-6(9)5-7(10)11-8(2,3)4/h5H2,1-4H3

> <InChI Key_QSARr>
JKUYRAMKJLMYLO-UHFFFAOYSA-N

> <Salt_Solvent>


> <Salt_Solvent_ID>
0

> <Number of connected components>
1

$$$$
Molecule_107
  Mrv2316 01072400032D          

 12 11  0  0  0  0            999 V2000
   -0.1914    0.7145    0.0000 O   0  0  0  0  0  0  0  0  0  0  0  0
    0.5230    1.1270    0.0000 C   0  0  0  0  0  0  0  0  0  0  0  0
    0.5230    1.9520    0.0000 O   0  0  0  0  0  0  0  0  0  0  0  0
    1.2375    0.7145    0.0000 C   0  0  0  0  0  0  0  0  0  0  0  0
    1.9520    1.1270    0.0000 C   0  0  0  0  0  0  0  0  0  0  0  0
    2.6664    0.7145    0.0000 C   0  0  0  0  0  0  0  0  0  0  0  0
    3.3809    1.1270    0.0000 C   0  0  0  0  0  0  0  0  0  0  0  0
    4.0954    0.7145    0.0000 C   0  0  0  0  0  0  0  0  0  0  0  0
    4.8099    1.1270    0.0000 C   0  0  0  0  0  0  0  0  0  0  0  0
    5.5243    1.5395    0.0000 C   0  0  0  0  0  0  0  0  0  0  0  0
    5.2224    0.4125    0.0000 C   0  0  0  0  0  0  0  0  0  0  0  0
    4.3974    1.8415    0.0000 C   0  0  0  0  0  0  0  0  0  0  0  0
  1  2  1  0  0  0  0
  2  3  2  0  0  0  0
  2  4  1  0  0  0  0
  4  5  1  0  0  0  0
  5  6  1  0  0  0  0
  6  7  1  0  0  0  0
  7  8  1  0  0  0  0
  8  9  1  0  0  0  0
  9 10  1  0  0  0  0
  9 11  1  0  0  0  0
  9 12  1  0  0  0  0
M  END
> <RowID>
107

> <Original_SMILES>
[Zn+2].CC(C)(C)CCCCCC([O-])=O.CC(C)(C)CCCCCC([O-])=O

> <Canonical_QSARr>
CC(C)(C)CCCCCC(O)=O

> <InChI_Code_QSARr>
InChI=1S/C10H20O2/c1-10(2,3)8-6-4-5-7-9(11)12/h4-8H2,1-3H3,(H,11,12)

> <InChI Key_QSARr>
YPIFGDQKSSMYHQ-UHFFFAOYSA-N

> <Salt_Solvent>
[Zn+2]

> <Salt_Solvent_ID>
300

> <Number of connected components>
3

$$$$
Molecule_108
  Mrv2316 01072400032D          

 16 16  0  0  0  0            999 V2000
    0.2357   -1.9579    0.0000 C   0  0  0  0  0  0  0  0  0  0  0  0
    0.9502   -1.5454    0.0000 C   0  0  0  0  0  0  0  0  0  0  0  0
    1.6647   -1.9579    0.0000 C   0  0  0  0  0  0  0  0  0  0  0  0
    2.3792   -1.5454    0.0000 C   0  0  0  0  0  0  0  0  0  0  0  0
    3.0936   -1.9579    0.0000 C   0  0  0  0  0  0  0  0  0  0  0  0
    3.8081   -1.5454    0.0000 C   0  0  0  0  0  0  0  0  0  0  0  0
    4.5618   -1.8809    0.0000 C   0  0  0  0  0  0  0  0  0  0  0  0
    4.7333   -2.6879    0.0000 C   0  0  0  0  0  0  0  0  0  0  0  0
    5.5179   -2.9429    0.0000 C   0  0  0  0  0  0  0  0  0  0  0  0
    6.1310   -2.3908    0.0000 O   0  0  0  0  0  0  0  0  0  0  0  0
    5.6894   -3.7498    0.0000 O   0  0  0  0  0  0  0  0  0  0  0  0
    6.4741   -4.0048    0.0000 C   0  0  0  0  0  0  0  0  0  0  0  0
    5.1138   -1.2679    0.0000 C   0  0  0  0  0  0  0  0  0  0  0  0
    4.7013   -0.5534    0.0000 C   0  0  0  0  0  0  0  0  0  0  0  0
    3.8943   -0.7249    0.0000 C   0  0  0  0  0  0  0  0  0  0  0  0
    3.2812   -0.1729    0.0000 O   0  0  0  0  0  0  0  0  0  0  0  0
  1  2  1  0  0  0  0
  2  3  1  0  0  0  0
  3  4  1  0  0  0  0
  4  5  1  0  0  0  0
  5  6  1  0  0  0  0
  7  6  1  0  0  0  0
  7  8  1  0  0  0  0
  8  9  1  0  0  0  0
  9 10  2  0  0  0  0
  9 11  1  0  0  0  0
 11 12  1  0  0  0  0
 13  7  1  0  0  0  0
 14 13  1  0  0  0  0
 15 14  1  0  0  0  0
  6 15  1  0  0  0  0
 15 16  2  0  0  0  0
M  END
> <RowID>
108

> <Original_SMILES>
CCCCCC1C(CCC1=O)CC(=O)OC

> <Canonical_QSARr>
CCCCCC1C(CCC1=O)CC(=O)OC

> <InChI_Code_QSARr>
InChI=1S/C13H22O3/c1-3-4-5-6-11-10(7-8-12(11)14)9-13(15)16-2/h10-11H,3-9H2,1-2H3

> <InChI Key_QSARr>
KVWWIYGFBYDJQC-UHFFFAOYSA-N

> <Salt_Solvent>


> <Salt_Solvent_ID>
0

> <Number of connected components>
1

$$$$
Molecule_109
  Mrv2316 01072400032D          

  7  6  0  0  0  0            999 V2000
   -0.1913    0.7146    0.0000 C   0  0  0  0  0  0  0  0  0  0  0  0
    0.5232    1.1271    0.0000 C   0  0  0  0  0  0  0  0  0  0  0  0
    1.2376    0.7146    0.0000 O   0  0  0  0  0  0  0  0  0  0  0  0
    1.9521    1.1271    0.0000 C   0  0  0  0  0  0  0  0  0  0  0  0
    2.6666    0.7146    0.0000 C   0  0  0  0  0  0  0  0  0  0  0  0
    3.3810    1.1271    0.0000 C   0  0  0  0  0  0  0  0  0  0  0  0
    2.6666   -0.1104    0.0000 O   0  0  0  0  0  0  0  0  0  0  0  0
  1  2  1  0  0  0  0
  2  3  1  0  0  0  0
  3  4  1  0  0  0  0
  4  5  1  0  0  0  0
  5  6  1  0  0  0  0
  5  7  1  0  0  0  0
M  END
> <RowID>
109

> <Original_SMILES>
CCOCC(C)O

> <Canonical_QSARr>
CCOCC(C)O

> <InChI_Code_QSARr>
InChI=1S/C5H12O2/c1-3-7-4-5(2)6/h5-6H,3-4H2,1-2H3

> <InChI Key_QSARr>
JOLQKTGDSGKSKJ-UHFFFAOYSA-N

> <Salt_Solvent>


> <Salt_Solvent_ID>
0

> <Number of connected components>
1

$$$$
Molecule_110
  Mrv2316 01072400032D          

 15 15  0  0  0  0            999 V2000
   -0.4584   -0.2366    0.0000 C   0  0  0  0  0  0  0  0  0  0  0  0
    0.1547    0.3154    0.0000 C   0  0  0  0  0  0  0  0  0  0  0  0
    0.9394    0.0605    0.0000 C   0  0  0  0  0  0  0  0  0  0  0  0
    1.5525    0.6125    0.0000 C   0  0  0  0  0  0  0  0  0  0  0  0
    2.3371    0.3576    0.0000 C   0  0  0  0  0  0  0  0  0  0  0  0
    2.5920   -0.4271    0.0000 C   0  0  0  0  0  0  0  0  0  0  0  0
    3.4170   -0.4271    0.0000 C   0  0  0  0  0  0  0  0  0  0  0  0
    3.6720    0.3576    0.0000 C   0  0  0  0  0  0  0  0  0  0  0  0
    4.4566    0.6125    0.0000 C   0  0  0  0  0  0  0  0  0  0  0  0
    3.0045    0.8425    0.0000 C   0  0  0  0  0  0  0  0  0  0  0  0
    3.4095    1.5612    0.0000 C   0  0  0  0  0  0  0  0  0  0  0  0
    2.5995    1.5612    0.0000 C   0  0  0  0  0  0  0  0  0  0  0  0
   -0.0168    1.1224    0.0000 C   0  0  0  0  0  0  0  0  0  0  0  0
   -0.8014    1.3773    0.0000 C   0  0  0  0  0  0  0  0  0  0  0  0
    0.5963    1.6744    0.0000 O   0  0  0  0  0  0  0  0  0  0  0  0
  1  2  1  0  0  0  0
  3  2  1  4  0  0  0
  3  4  2  0  0  0  0
  4  5  1  0  0  0  0
  6  5  1  0  0  0  0
  7  6  1  0  0  0  0
  8  7  2  0  0  0  0
  8  9  1  0  0  0  0
 10  8  1  0  0  0  0
  5 10  1  0  0  0  0
 10 11  1  0  0  0  0
 10 12  1  0  0  0  0
  2 13  1  0  0  0  0
 13 14  1  0  0  0  0
 13 15  1  0  0  0  0
M  END
> <RowID>
110

> <Original_SMILES>
CC(C=CC1CC=C(C)C1(C)C)C(C)O

> <Canonical_QSARr>
CC(C=CC1CC=C(C)C1(C)C)C(C)O

> <InChI_Code_QSARr>
InChI=1S/C14H24O/c1-10(12(3)15)6-8-13-9-7-11(2)14(13,4)5/h6-8,10,12-13,15H,9H2,1-5H3

> <InChI Key_QSARr>
RNLHVODSMDJCBR-UHFFFAOYSA-N

> <Salt_Solvent>


> <Salt_Solvent_ID>
0

> <Number of connected components>
1

$$$$
Molecule_112
  Mrv2316 01072400032D          

 16 17  0  0  0  0            999 V2000
   -2.1434   -2.0625    0.0000 O   0  5  0  0  0  0  0  0  0  0  0  0
   -1.4289   -1.6500    0.0000 N   0  3  0  0  0  0  0  0  0  0  0  0
   -1.4289   -0.8250    0.0000 O   0  0  0  0  0  0  0  0  0  0  0  0
   -0.7145   -2.0625    0.0000 C   0  0  0  0  0  0  0  0  0  0  0  0
   -0.7145   -2.8875    0.0000 C   0  0  0  0  0  0  0  0  0  0  0  0
   -0.0000   -3.3000    0.0000 C   0  0  0  0  0  0  0  0  0  0  0  0
    0.7145   -2.8875    0.0000 C   0  0  0  0  0  0  0  0  0  0  0  0
    0.7145   -2.0625    0.0000 C   0  0  0  0  0  0  0  0  0  0  0  0
   -0.0000   -1.6500    0.0000 C   0  0  0  0  0  0  0  0  0  0  0  0
   -0.0000   -0.8250    0.0000 C   0  0  0  0  0  0  0  0  0  0  0  0
    0.7145   -0.4125    0.0000 C   0  0  0  0  0  0  0  0  0  0  0  0
    0.7145    0.4125    0.0000 C   0  0  0  0  0  0  0  0  0  0  0  0
   -0.0000    0.8250    0.0000 C   0  0  0  0  0  0  0  0  0  0  0  0
   -0.0000    1.6500    0.0000 Cl  0  0  0  0  0  0  0  0  0  0  0  0
   -0.7145    0.4125    0.0000 C   0  0  0  0  0  0  0  0  0  0  0  0
   -0.7145   -0.4125    0.0000 C   0  0  0  0  0  0  0  0  0  0  0  0
  1  2  1  0  0  0  0
  2  3  2  0  0  0  0
  2  4  1  0  0  0  0
  5  4  2  0  0  0  0
  6  5  1  0  0  0  0
  7  6  2  0  0  0  0
  8  7  1  0  0  0  0
  9  8  2  0  0  0  0
  4  9  1  0  0  0  0
  9 10  1  0  0  0  0
 11 10  1  0  0  0  0
 12 11  2  0  0  0  0
 13 12  1  0  0  0  0
 13 14  1  0  0  0  0
 15 13  2  0  0  0  0
 16 15  1  0  0  0  0
 10 16  2  0  0  0  0
M  CHG  2   1  -1   2   1
M  END
> <RowID>
112

> <Original_SMILES>
[O-][N+](=O)C1=CC=CC=C1C1C=CC(Cl)=CC=1

> <Canonical_QSARr>
[O-][N+](=O)C1=CC=CC=C1C1C=CC(Cl)=CC=1

> <InChI_Code_QSARr>
InChI=1S/C12H8ClNO2/c13-10-7-5-9(6-8-10)11-3-1-2-4-12(11)14(15)16/h1-8H

> <InChI Key_QSARr>
OMNWKPZIFZJANV-UHFFFAOYSA-N

> <Salt_Solvent>


> <Salt_Solvent_ID>
0

> <Number of connected components>
1

$$$$
Molecule_113
  Mrv2316 01072400032D          

 13 13  0  0  0  0            999 V2000
   -1.6488    1.5231    0.0000 C   0  0  0  0  0  0  0  0  0  0  0  0
   -0.9343    1.1106    0.0000 C   0  0  0  0  0  0  0  0  0  0  0  0
   -0.9343    0.2856    0.0000 O   0  0  0  0  0  0  0  0  0  0  0  0
   -0.2198    1.5231    0.0000 O   0  0  0  0  0  0  0  0  0  0  0  0
    0.4946    1.1106    0.0000 C   0  0  0  0  0  0  0  0  0  0  0  0
    0.4946    0.2856    0.0000 C   0  0  0  0  0  0  0  0  0  0  0  0
    1.2091   -0.1269    0.0000 C   0  0  0  0  0  0  0  0  0  0  0  0
    1.9236    0.2856    0.0000 C   0  0  0  0  0  0  0  0  0  0  0  0
    1.9236    1.1106    0.0000 C   0  0  0  0  0  0  0  0  0  0  0  0
    1.2091    1.5231    0.0000 C   0  0  0  0  0  0  0  0  0  0  0  0
    1.2091    2.3481    0.0000 C   0  0  0  0  0  0  0  0  0  0  0  0
    0.4946    2.7606    0.0000 O   0  0  0  0  0  0  0  0  0  0  0  0
    1.9236    2.7606    0.0000 O   0  0  0  0  0  0  0  0  0  0  0  0
  1  2  1  0  0  0  0
  2  3  2  0  0  0  0
  2  4  1  0  0  0  0
  4  5  1  0  0  0  0
  6  5  1  0  0  0  0
  7  6  2  0  0  0  0
  8  7  1  0  0  0  0
  9  8  2  0  0  0  0
 10  9  1  0  0  0  0
  5 10  2  0  0  0  0
 10 11  1  0  0  0  0
 11 12  1  0  0  0  0
 11 13  2  0  0  0  0
M  END
> <RowID>
113

> <Original_SMILES>
CC(=O)OC1C=CC=CC=1C(O)=O

> <Canonical_QSARr>
CC(=O)OC1C=CC=CC=1C(O)=O

> <InChI_Code_QSARr>
InChI=1S/C9H8O4/c1-6(10)13-8-5-3-2-4-7(8)9(11)12/h2-5H,1H3,(H,11,12)

> <InChI Key_QSARr>
BSYNRYMUTXBXSQ-UHFFFAOYSA-N

> <Salt_Solvent>


> <Salt_Solvent_ID>
0

> <Number of connected components>
1

$$$$
Molecule_114
  Mrv2316 01072400032D          

 31 32  0  0  0  0            999 V2000
    2.1434   -7.7843    0.0000 C   0  0  0  0  0  0  0  0  0  0  0  0
    2.8579   -7.3718    0.0000 C   0  0  0  0  0  0  0  0  0  0  0  0
    3.5724   -7.7843    0.0000 O   0  0  0  0  0  0  0  0  0  0  0  0
    4.2868   -7.3718    0.0000 C   0  0  0  0  0  0  0  0  0  0  0  0
    4.2868   -6.5468    0.0000 O   0  0  0  0  0  0  0  0  0  0  0  0
    5.0013   -7.7843    0.0000 C   0  0  0  0  0  0  0  0  0  0  0  0
    5.0013   -8.6093    0.0000 C   0  0  0  0  0  0  0  0  0  0  0  0
    5.7158   -7.3718    0.0000 O   0  0  0  0  0  0  0  0  0  0  0  0
    6.4302   -7.7843    0.0000 C   0  0  0  0  0  0  0  0  0  0  0  0
    6.4302   -8.6093    0.0000 O   0  0  0  0  0  0  0  0  0  0  0  0
    7.1447   -7.3718    0.0000 C   0  0  0  0  0  0  0  0  0  0  0  0
    7.8592   -7.7843    0.0000 C   0  0  0  0  0  0  0  0  0  0  0  0
    8.5737   -7.3718    0.0000 C   0  0  0  0  0  0  0  0  0  0  0  0
    9.2881   -7.7843    0.0000 O   0  0  0  0  0  0  0  0  0  0  0  0
   10.0026   -7.3718    0.0000 C   0  0  0  0  0  0  0  0  0  0  0  0
   10.7171   -7.7843    0.0000 C   0  0  0  0  0  0  0  0  0  0  0  0
   11.4315   -7.3718    0.0000 C   0  0  0  0  0  0  0  0  0  0  0  0
   11.4315   -6.5468    0.0000 C   0  0  0  0  0  0  0  0  0  0  0  0
   12.1460   -6.1343    0.0000 C   0  0  0  0  0  0  0  0  0  0  0  0
   12.8605   -5.7218    0.0000 F   0  0  0  0  0  0  0  0  0  0  0  0
   12.5585   -6.8487    0.0000 F   0  0  0  0  0  0  0  0  0  0  0  0
   11.7335   -5.4198    0.0000 F   0  0  0  0  0  0  0  0  0  0  0  0
   10.7171   -6.1343    0.0000 C   0  0  0  0  0  0  0  0  0  0  0  0
   10.0026   -6.5468    0.0000 C   0  0  0  0  0  0  0  0  0  0  0  0
    9.2881   -6.1343    0.0000 Cl  0  0  0  0  0  0  0  0  0  0  0  0
    8.5737   -6.5468    0.0000 C   0  0  0  0  0  0  0  0  0  0  0  0
    7.8592   -6.1343    0.0000 C   0  0  0  0  0  0  0  0  0  0  0  0
    7.1447   -6.5468    0.0000 C   0  0  0  0  0  0  0  0  0  0  0  0
    6.4302   -6.1343    0.0000 N   0  3  0  0  0  0  0  0  0  0  0  0
    5.7158   -6.5468    0.0000 O   0  5  0  0  0  0  0  0  0  0  0  0
    6.4302   -5.3093    0.0000 O   0  0  0  0  0  0  0  0  0  0  0  0
  1  2  1  0  0  0  0
  2  3  1  0  0  0  0
  3  4  1  0  0  0  0
  4  5  2  0  0  0  0
  4  6  1  0  0  0  0
  6  7  1  0  0  0  0
  6  8  1  0  0  0  0
  8  9  1  0  0  0  0
  9 10  2  0  0  0  0
  9 11  1  0  0  0  0
 12 11  1  0  0  0  0
 13 12  2  0  0  0  0
 13 14  1  0  0  0  0
 14 15  1  0  0  0  0
 16 15  1  0  0  0  0
 17 16  2  0  0  0  0
 18 17  1  0  0  0  0
 18 19  1  0  0  0  0
 19 20  1  0  0  0  0
 19 21  1  0  0  0  0
 19 22  1  0  0  0  0
 23 18  2  0  0  0  0
 24 23  1  0  0  0  0
 15 24  2  0  0  0  0
 24 25  1  0  0  0  0
 26 13  1  0  0  0  0
 27 26  2  0  0  0  0
 28 27  1  0  0  0  0
 11 28  2  0  0  0  0
 28 29  1  0  0  0  0
 29 30  1  0  0  0  0
 29 31  2  0  0  0  0
M  CHG  2  29   1  30  -1
M  END
> <RowID>
114

> <Original_SMILES>
CCOC(=O)C(C)OC(=O)C1C=C(C=CC=1[N+]([O-])=O)OC1C=CC(=CC=1Cl)C(F)(F)F

> <Canonical_QSARr>
CCOC(=O)C(C)OC(=O)C1C=C(C=CC=1[N+]([O-])=O)OC1C=CC(=CC=1Cl)C(F)(F)F

> <InChI_Code_QSARr>
InChI=1S/C19H15ClF3NO7/c1-3-29-17(25)10(2)30-18(26)13-9-12(5-6-15(13)24(27)28)31-16-7-4-11(8-14(16)20)19(21,22)23/h4-10H,3H2,1-2H3

> <InChI Key_QSARr>
CONWAEURSVPLRM-UHFFFAOYSA-N

> <Salt_Solvent>


> <Salt_Solvent_ID>
0

> <Number of connected components>
1

$$$$
Molecule_115
  Mrv2316 01072400032D          

 26 30  0  0  0  0            999 V2000
    2.1434    2.0625    0.0000 O   0  0  0  0  0  0  0  0  0  0  0  0
    2.1434    1.2375    0.0000 C   0  0  0  0  0  0  0  0  0  0  0  0
    2.8579    0.8250    0.0000 C   0  0  0  0  0  0  0  0  0  0  0  0
    3.5724    1.2375    0.0000 C   0  0  0  0  0  0  0  0  0  0  0  0
    4.2868    0.8250    0.0000 C   0  0  0  0  0  0  0  0  0  0  0  0
    5.0013    1.2375    0.0000 N   0  0  0  0  0  0  0  0  0  0  0  0
    5.7158    0.8250    0.0000 C   0  0  0  0  0  0  0  0  0  0  0  0
    6.4302    1.2375    0.0000 C   0  0  0  0  0  0  0  0  0  0  0  0
    7.1447    0.8250    0.0000 C   0  0  0  0  0  0  0  0  0  0  0  0
    7.1447   -0.0000    0.0000 C   0  0  0  0  0  0  0  0  0  0  0  0
    7.8592   -0.4125    0.0000 Cl  0  0  0  0  0  0  0  0  0  0  0  0
    6.4302   -0.4125    0.0000 C   0  0  0  0  0  0  0  0  0  0  0  0
    5.7158    0.0000    0.0000 C   0  0  0  0  0  0  0  0  0  0  0  0
    5.0013   -0.4125    0.0000 C   0  0  0  0  0  0  0  0  0  0  0  0
    5.0013   -1.2375    0.0000 O   0  0  0  0  0  0  0  0  0  0  0  0
    4.2868    0.0000    0.0000 C   0  0  0  0  0  0  0  0  0  0  0  0
    3.5724   -0.4125    0.0000 C   0  0  0  0  0  0  0  0  0  0  0  0
    2.8579    0.0000    0.0000 C   0  0  0  0  0  0  0  0  0  0  0  0
    2.1434   -0.4125    0.0000 N   0  0  0  0  0  0  0  0  0  0  0  0
    1.4289   -0.0000    0.0000 C   0  0  0  0  0  0  0  0  0  0  0  0
    0.7145   -0.4125    0.0000 C   0  0  0  0  0  0  0  0  0  0  0  0
   -0.0000   -0.0000    0.0000 C   0  0  0  0  0  0  0  0  0  0  0  0
   -0.0000    0.8250    0.0000 C   0  0  0  0  0  0  0  0  0  0  0  0
   -0.7145    1.2375    0.0000 Cl  0  0  0  0  0  0  0  0  0  0  0  0
    0.7145    1.2375    0.0000 C   0  0  0  0  0  0  0  0  0  0  0  0
    1.4289    0.8250    0.0000 C   0  0  0  0  0  0  0  0  0  0  0  0
  1  2  2  0  0  0  0
  3  2  1  0  0  0  0
  3  4  2  0  0  0  0
  4  5  1  0  0  0  0
  6  5  1  0  0  0  0
  7  6  1  0  0  0  0
  7  8  2  0  0  0  0
  8  9  1  0  0  0  0
  9 10  2  0  0  0  0
 10 11  1  0  0  0  0
 10 12  1  0  0  0  0
 12 13  2  0  0  0  0
 13  7  1  0  0  0  0
 14 13  1  0  0  0  0
 14 15  2  0  0  0  0
 16 14  1  0  0  0  0
  5 16  2  0  0  0  0
 16 17  1  0  0  0  0
 17 18  2  0  0  0  0
 18  3  1  0  0  0  0
 19 18  1  0  0  0  0
 20 19  1  0  0  0  0
 20 21  2  0  0  0  0
 21 22  1  0  0  0  0
 22 23  2  0  0  0  0
 23 24  1  0  0  0  0
 23 25  1  0  0  0  0
 25 26  2  0  0  0  0
  2 26  1  0  0  0  0
 26 20  1  0  0  0  0
M  END
> <RowID>
115

> <Original_SMILES>
O=C1C2=CC3NC4=CC=C(Cl)C=C4C(=O)C=3C=C2NC2=CC=C(Cl)C=C12

> <Canonical_QSARr>
O=C1C2=CC3NC4=CC=C(Cl)C=C4C(=O)C=3C=C2NC2=CC=C(Cl)C=C12

> <InChI_Code_QSARr>
InChI=1S/C20H10Cl2N2O2/c21-9-1-3-15-11(5-9)19(25)13-8-18-14(7-17(13)23-15)20(26)12-6-10(22)2-4-16(12)24-18/h1-8H,(H,23,25)(H,24,26)

> <InChI Key_QSARr>
XPZQBGDNVOHQIS-UHFFFAOYSA-N

> <Salt_Solvent>


> <Salt_Solvent_ID>
0

> <Number of connected components>
1

$$$$
Molecule_117
  Mrv2316 01072400032D          

 10 10  0  0  0  0            999 V2000
    2.1434   -0.4125    0.0000 O   0  0  0  0  0  0  0  0  0  0  0  0
    1.4289   -0.0000    0.0000 C   0  0  0  0  0  0  0  0  0  0  0  0
    1.4289    0.8250    0.0000 N   0  0  0  0  0  0  0  0  0  0  0  0
    0.7145    1.2375    0.0000 C   0  0  0  0  0  0  0  0  0  0  0  0
    0.7145    2.0625    0.0000 Cl  0  0  0  0  0  0  0  0  0  0  0  0
   -0.0000    0.8250    0.0000 C   0  0  0  0  0  0  0  0  0  0  0  0
   -0.7145    1.2375    0.0000 Cl  0  0  0  0  0  0  0  0  0  0  0  0
   -0.0000    0.0000    0.0000 C   0  0  0  0  0  0  0  0  0  0  0  0
    0.7145   -0.4125    0.0000 C   0  0  0  0  0  0  0  0  0  0  0  0
    0.7145   -1.2375    0.0000 Cl  0  0  0  0  0  0  0  0  0  0  0  0
  1  2  1  0  0  0  0
  3  2  1  0  0  0  0
  4  3  2  0  0  0  0
  4  5  1  0  0  0  0
  6  4  1  0  0  0  0
  6  7  1  0  0  0  0
  8  6  2  0  0  0  0
  9  8  1  0  0  0  0
  2  9  2  0  0  0  0
  9 10  1  0  0  0  0
M  END
> <RowID>
117

> <Original_SMILES>
[Na+].[O-]C1N=C(Cl)C(Cl)=CC=1Cl

> <Canonical_QSARr>
OC1N=C(Cl)C(Cl)=CC=1Cl

> <InChI_Code_QSARr>
InChI=1S/C5H2Cl3NO/c6-2-1-3(7)5(10)9-4(2)8/h1H,(H,9,10)

> <InChI Key_QSARr>
WCYYAQFQZQEUEN-UHFFFAOYSA-N

> <Salt_Solvent>
[Na+]

> <Salt_Solvent_ID>
110

> <Number of connected components>
2

$$$$
Molecule_118
  Mrv2316 01072400032D          

 32 35  0  0  0  0            999 V2000
    2.0630   -1.4167    0.0000 C   0  0  0  0  0  0  0  0  0  0  0  0
    2.8390   -1.6970    0.0000 C   0  0  0  0  0  0  0  0  0  0  0  0
    3.5218   -1.2340    0.0000 C   0  0  0  0  0  0  0  0  0  0  0  0
    4.1731   -1.7404    0.0000 C   0  0  0  0  0  0  0  0  0  0  0  0
    4.9853   -1.5952    0.0000 C   0  0  0  0  0  0  0  0  0  0  0  0
    5.2656   -0.8192    0.0000 C   0  0  0  0  0  0  0  0  0  0  0  0
    6.0777   -0.6740    0.0000 C   0  0  0  0  0  0  0  0  0  0  0  0
    6.6095   -1.3047    0.0000 C   0  0  0  0  0  0  0  0  0  0  0  0
    7.4216   -1.1595    0.0000 C   0  0  0  0  0  0  0  0  0  0  0  0
    7.9534   -1.7902    0.0000 C   0  0  0  0  0  0  0  0  0  0  0  0
    8.7656   -1.6450    0.0000 O   0  0  0  0  0  0  0  0  0  0  0  0
    7.6731   -2.5662    0.0000 C   0  0  0  0  0  0  0  0  0  0  0  0
    6.8610   -2.7114    0.0000 C   0  0  0  0  0  0  0  0  0  0  0  0
    6.3292   -2.0807    0.0000 C   0  0  0  0  0  0  0  0  0  0  0  0
    6.0489   -2.8566    0.0000 C   0  0  0  0  0  0  0  0  0  0  0  0
    5.5171   -2.2259    0.0000 C   0  0  0  0  0  0  0  0  0  0  0  0
    5.5766   -3.0487    0.0000 F   0  0  0  0  0  0  0  0  0  0  0  0
    5.2368   -3.0018    0.0000 C   0  0  0  0  0  0  0  0  0  0  0  0
    5.7686   -3.6325    0.0000 O   0  0  0  0  0  0  0  0  0  0  0  0
    4.4247   -3.1470    0.0000 C   0  0  0  0  0  0  0  0  0  0  0  0
    3.8928   -2.5163    0.0000 C   0  0  0  0  0  0  0  0  0  0  0  0
    3.5330   -3.2587    0.0000 C   0  0  0  0  0  0  0  0  0  0  0  0
    3.0683   -2.4895    0.0000 C   0  0  0  0  0  0  0  0  0  0  0  0
    2.3074   -2.8084    0.0000 O   0  0  0  0  0  0  0  0  0  0  0  0
    1.6508   -2.3089    0.0000 C   0  0  0  0  0  0  0  0  0  0  0  0
    1.7551   -1.4905    0.0000 O   0  0  0  0  0  0  0  0  0  0  0  0
    0.8899   -2.6277    0.0000 C   0  0  0  0  0  0  0  0  0  0  0  0
    0.2333   -2.1282    0.0000 C   0  0  0  0  0  0  0  0  0  0  0  0
    2.9469   -3.3055    0.0000 C   0  0  0  0  0  0  0  0  0  0  0  0
    3.5929   -3.8187    0.0000 O   0  0  0  0  0  0  0  0  0  0  0  0
    2.1795   -3.6084    0.0000 C   0  0  0  0  0  0  0  0  0  0  0  0
    2.0581   -4.4244    0.0000 O   0  0  0  0  0  0  0  0  0  0  0  0
  1  2  1  0  0  0  0
  3  2  1  0  0  0  0
  4  3  1  0  0  0  0
  4  5  1  0  0  0  0
  6  5  1  0  0  0  0
  7  6  1  0  0  0  0
  8  7  1  0  0  0  0
  8  9  2  0  0  0  0
  9 10  1  0  0  0  0
 10 11  2  0  0  0  0
 10 12  1  0  0  0  0
 12 13  2  0  0  0  0
 13 14  1  0  0  0  0
 14  8  1  0  0  0  0
 14 15  1  0  0  0  0
 16 14  1  0  0  0  0
  5 16  1  0  0  0  0
 16 17  1  0  0  0  0
 16 18  1  0  0  0  0
 18 19  1  0  0  0  0
 18 20  1  0  0  0  0
 20 21  1  0  0  0  0
 21  4  1  0  0  0  0
 21 22  1  0  0  0  0
 23 21  1  0  0  0  0
  2 23  1  0  0  0  0
 23 24  1  0  0  0  0
 24 25  1  0  0  0  0
 25 26  2  0  0  0  0
 25 27  1  0  0  0  0
 27 28  1  0  0  0  0
 23 29  1  0  0  0  0
 29 30  2  0  0  0  0
 29 31  1  0  0  0  0
 31 32  1  0  0  0  0
M  END
> <RowID>
118

> <Original_SMILES>
CC1CC2C3CCC4=CC(=O)C=CC4(C)C3(F)C(O)CC2(C)C1(OC(=O)CC)C(=O)CO

> <Canonical_QSARr>
CC1CC2C3CCC4=CC(=O)C=CC4(C)C3(F)C(O)CC2(C)C1(OC(=O)CC)C(=O)CO

> <InChI_Code_QSARr>
InChI=1S/C25H33FO6/c1-5-21(31)32-25(20(30)13-27)14(2)10-18-17-7-6-15-11-16(28)8-9-22(15,3)24(17,26)19(29)12-23(18,25)4/h8-9,11,14,17-19,27,29H,5-7,10,12-13H2,1-4H3

> <InChI Key_QSARr>
ITYMTTQVNYAJAA-UHFFFAOYSA-N

> <Salt_Solvent>


> <Salt_Solvent_ID>
0

> <Number of connected components>
1

$$$$
Molecule_119
  Mrv2316 01072400032D          

 26 25  0  0  0  0            999 V2000
   -1.3184   -7.8375    0.0000 C   0  0  0  0  0  0  0  0  0  0  0  0
   -0.6039   -7.4250    0.0000 C   0  0  0  0  0  0  0  0  0  0  0  0
   -0.6039   -6.6000    0.0000 C   0  0  0  0  0  0  0  0  0  0  0  0
   -1.3184   -6.1875    0.0000 O   0  0  0  0  0  0  0  0  0  0  0  0
    0.1105   -6.1875    0.0000 O   0  0  0  0  0  0  0  0  0  0  0  0
    0.1105   -5.3625    0.0000 C   0  0  0  0  0  0  0  0  0  0  0  0
    0.8250   -4.9500    0.0000 C   0  0  0  0  0  0  0  0  0  0  0  0
    0.8250   -4.1250    0.0000 C   0  0  0  0  0  0  0  0  0  0  0  0
    1.6500   -4.1250    0.0000 F   0  0  0  0  0  0  0  0  0  0  0  0
    0.0000   -4.1250    0.0000 F   0  0  0  0  0  0  0  0  0  0  0  0
    0.8250   -3.3000    0.0000 C   0  0  0  0  0  0  0  0  0  0  0  0
    1.6500   -3.3000    0.0000 F   0  0  0  0  0  0  0  0  0  0  0  0
    0.0000   -3.3000    0.0000 F   0  0  0  0  0  0  0  0  0  0  0  0
    0.8250   -2.4750    0.0000 C   0  0  0  0  0  0  0  0  0  0  0  0
    1.6500   -2.4750    0.0000 F   0  0  0  0  0  0  0  0  0  0  0  0
    0.0000   -2.4750    0.0000 F   0  0  0  0  0  0  0  0  0  0  0  0
    0.8250   -1.6500    0.0000 C   0  0  0  0  0  0  0  0  0  0  0  0
    1.6500   -1.6500    0.0000 F   0  0  0  0  0  0  0  0  0  0  0  0
    0.0000   -1.6500    0.0000 F   0  0  0  0  0  0  0  0  0  0  0  0
    0.8250   -0.8250    0.0000 C   0  0  0  0  0  0  0  0  0  0  0  0
    1.6500   -0.8250    0.0000 F   0  0  0  0  0  0  0  0  0  0  0  0
    0.0000   -0.8250    0.0000 F   0  0  0  0  0  0  0  0  0  0  0  0
    0.8250    0.0000    0.0000 C   0  0  0  0  0  0  0  0  0  0  0  0
    0.8250    0.8250    0.0000 F   0  0  0  0  0  0  0  0  0  0  0  0
    1.6500    0.0000    0.0000 F   0  0  0  0  0  0  0  0  0  0  0  0
    0.0000    0.0000    0.0000 F   0  0  0  0  0  0  0  0  0  0  0  0
  1  2  2  0  0  0  0
  2  3  1  0  0  0  0
  3  4  2  0  0  0  0
  3  5  1  0  0  0  0
  5  6  1  0  0  0  0
  6  7  1  0  0  0  0
  7  8  1  0  0  0  0
  8  9  1  0  0  0  0
  8 10  1  0  0  0  0
  8 11  1  0  0  0  0
 11 12  1  0  0  0  0
 11 13  1  0  0  0  0
 11 14  1  0  0  0  0
 14 15  1  0  0  0  0
 14 16  1  0  0  0  0
 14 17  1  0  0  0  0
 17 18  1  0  0  0  0
 17 19  1  0  0  0  0
 17 20  1  0  0  0  0
 20 21  1  0  0  0  0
 20 22  1  0  0  0  0
 20 23  1  0  0  0  0
 23 24  1  0  0  0  0
 23 25  1  0  0  0  0
 23 26  1  0  0  0  0
M  END
> <RowID>
119

> <Original_SMILES>
C=CC(=O)OCCC(F)(F)C(F)(F)C(F)(F)C(F)(F)C(F)(F)C(F)(F)F

> <Canonical_QSARr>
C=CC(=O)OCCC(F)(F)C(F)(F)C(F)(F)C(F)(F)C(F)(F)C(F)(F)F

> <InChI_Code_QSARr>
InChI=1S/C11H7F13O2/c1-2-5(25)26-4-3-6(12,13)7(14,15)8(16,17)9(18,19)10(20,21)11(22,23)24/h2H,1,3-4H2

> <InChI Key_QSARr>
VPKQPPJQTZJZDB-UHFFFAOYSA-N

> <Salt_Solvent>


> <Salt_Solvent_ID>
0

> <Number of connected components>
1

$$$$
Molecule_120
  Mrv2316 01072400032D          

  8  8  0  0  0  0            999 V2000
    1.2503    2.4750    0.0000 C   0  0  0  0  0  0  0  0  0  0  0  0
    0.5359    2.0625    0.0000 S   0  0  0  0  0  0  0  0  0  0  0  0
    0.5359    1.2375    0.0000 C   0  0  0  0  0  0  0  0  0  0  0  0
   -0.1786    0.8250    0.0000 C   0  0  0  0  0  0  0  0  0  0  0  0
   -0.1786   -0.0000    0.0000 C   0  0  0  0  0  0  0  0  0  0  0  0
    0.5359   -0.4125    0.0000 C   0  0  0  0  0  0  0  0  0  0  0  0
    1.2503    0.0000    0.0000 C   0  0  0  0  0  0  0  0  0  0  0  0
    1.2503    0.8250    0.0000 C   0  0  0  0  0  0  0  0  0  0  0  0
  1  2  1  0  0  0  0
  2  3  1  0  0  0  0
  4  3  1  0  0  0  0
  5  4  2  0  0  0  0
  6  5  1  0  0  0  0
  7  6  2  0  0  0  0
  8  7  1  0  0  0  0
  3  8  2  0  0  0  0
M  END
> <RowID>
120

> <Original_SMILES>
CSC1C=CC=CC=1

> <Canonical_QSARr>
CSC1C=CC=CC=1

> <InChI_Code_QSARr>
InChI=1S/C7H8S/c1-8-7-5-3-2-4-6-7/h2-6H,1H3

> <InChI Key_QSARr>
HNKJADCVZUBCPG-UHFFFAOYSA-N

> <Salt_Solvent>


> <Salt_Solvent_ID>
0

> <Number of connected components>
1

$$$$
Molecule_121
  Mrv2316 01072400032D          

 13 14  0  0  0  0            999 V2000
    1.4289    0.8250    0.0000 O   0  0  0  0  0  0  0  0  0  0  0  0
    1.4289    0.0000    0.0000 C   0  0  0  0  0  0  0  0  0  0  0  0
    2.1434   -0.4125    0.0000 C   0  0  0  0  0  0  0  0  0  0  0  0
    2.8579    0.0000    0.0000 N   0  0  0  0  0  0  0  0  0  0  0  0
    3.5724   -0.4125    0.0000 C   0  0  0  0  0  0  0  0  0  0  0  0
    3.5724   -1.2375    0.0000 C   0  0  0  0  0  0  0  0  0  0  0  0
    2.8579   -1.6500    0.0000 C   0  0  0  0  0  0  0  0  0  0  0  0
    2.1434   -1.2375    0.0000 C   0  0  0  0  0  0  0  0  0  0  0  0
    1.4289   -1.6500    0.0000 C   0  0  0  0  0  0  0  0  0  0  0  0
    1.4289   -2.4750    0.0000 I   0  0  0  0  0  0  0  0  0  0  0  0
    0.7145   -1.2375    0.0000 C   0  0  0  0  0  0  0  0  0  0  0  0
    0.7145   -0.4125    0.0000 C   0  0  0  0  0  0  0  0  0  0  0  0
   -0.0000   -0.0000    0.0000 I   0  0  0  0  0  0  0  0  0  0  0  0
  1  2  1  0  0  0  0
  3  2  2  0  0  0  0
  3  4  1  0  0  0  0
  4  5  2  0  0  0  0
  5  6  1  0  0  0  0
  6  7  2  0  0  0  0
  7  8  1  0  0  0  0
  8  3  1  0  0  0  0
  9  8  2  0  0  0  0
  9 10  1  0  0  0  0
 11  9  1  0  0  0  0
 12 11  2  0  0  0  0
  2 12  1  0  0  0  0
 12 13  1  0  0  0  0
M  END
> <RowID>
121

> <Original_SMILES>
OC1=C2N=CC=CC2=C(I)C=C1I

> <Canonical_QSARr>
OC1=C2N=CC=CC2=C(I)C=C1I

> <InChI_Code_QSARr>
InChI=1S/C9H5I2NO/c10-6-4-7(11)9(13)8-5(6)2-1-3-12-8/h1-4,13H

> <InChI Key_QSARr>
UXZFQZANDVDGMM-UHFFFAOYSA-N

> <Salt_Solvent>


> <Salt_Solvent_ID>
0

> <Number of connected components>
1

$$$$
Molecule_122
  Mrv2316 01072400032D          

 16 17  0  0  0  0            999 V2000
    0.7145   -2.4750    0.0000 N   0  0  0  0  0  0  0  0  0  0  0  0
    0.7145   -1.6500    0.0000 C   0  0  0  0  0  0  0  0  0  0  0  0
    1.4289   -1.2375    0.0000 C   0  0  0  0  0  0  0  0  0  0  0  0
    1.4289   -0.4125    0.0000 C   0  0  0  0  0  0  0  0  0  0  0  0
    0.7145   -0.0000    0.0000 C   0  0  0  0  0  0  0  0  0  0  0  0
    0.7145    0.8250    0.0000 F   0  0  0  0  0  0  0  0  0  0  0  0
    0.0000   -0.4125    0.0000 C   0  0  0  0  0  0  0  0  0  0  0  0
    0.0000   -1.2375    0.0000 C   0  0  0  0  0  0  0  0  0  0  0  0
   -0.7145   -1.6500    0.0000 C   0  0  0  0  0  0  0  0  0  0  0  0
   -1.4289   -1.2375    0.0000 C   0  0  0  0  0  0  0  0  0  0  0  0
   -2.1434   -1.6500    0.0000 C   0  0  0  0  0  0  0  0  0  0  0  0
   -2.8579   -1.2375    0.0000 Cl  0  0  0  0  0  0  0  0  0  0  0  0
   -2.1434   -2.4750    0.0000 C   0  0  0  0  0  0  0  0  0  0  0  0
   -2.8579   -2.8875    0.0000 Cl  0  0  0  0  0  0  0  0  0  0  0  0
   -1.4289   -2.8875    0.0000 C   0  0  0  0  0  0  0  0  0  0  0  0
   -0.7145   -2.4750    0.0000 C   0  0  0  0  0  0  0  0  0  0  0  0
  1  2  1  0  0  0  0
  3  2  1  0  0  0  0
  4  3  2  0  0  0  0
  5  4  1  0  0  0  0
  5  6  1  0  0  0  0
  7  5  2  0  0  0  0
  8  7  1  0  0  0  0
  2  8  2  0  0  0  0
  8  9  1  0  0  0  0
 10  9  2  0  0  0  0
 11 10  1  0  0  0  0
 11 12  1  0  0  0  0
 13 11  2  0  0  0  0
 13 14  1  0  0  0  0
 15 13  1  0  0  0  0
 16 15  2  0  0  0  0
  9 16  1  0  0  0  0
M  END
> <RowID>
122

> <Original_SMILES>
NC1C=CC(F)=CC=1C1=CC(Cl)=C(Cl)C=C1

> <Canonical_QSARr>
NC1C=CC(F)=CC=1C1=CC(Cl)=C(Cl)C=C1

> <InChI_Code_QSARr>
InChI=1S/C12H8Cl2FN/c13-10-3-1-7(5-11(10)14)9-6-8(15)2-4-12(9)16/h1-6H,16H2

> <InChI Key_QSARr>
QUVGVAKQHNJQNN-UHFFFAOYSA-N

> <Salt_Solvent>


> <Salt_Solvent_ID>
0

> <Number of connected components>
1

$$$$
Molecule_123
  Mrv2316 01072400032D          

  7  6  0  0  0  0            999 V2000
    1.2375    2.1434    0.0000 O   0  0  0  0  0  0  0  0  0  0  0  0
    0.8250    1.4289    0.0000 C   0  0  0  0  0  0  0  0  0  0  0  0
   -0.0000    1.4289    0.0000 O   0  0  0  0  0  0  0  0  0  0  0  0
    1.2375    0.7145    0.0000 N   0  0  0  0  0  0  0  0  0  0  0  0
    0.8250   -0.0000    0.0000 C   0  0  0  0  0  0  0  0  0  0  0  0
    1.2375   -0.7145    0.0000 N   0  0  0  0  0  0  0  0  0  0  0  0
    0.0000   -0.0000    0.0000 O   0  0  0  0  0  0  0  0  0  0  0  0
  1  2  1  0  0  0  0
  2  3  2  0  0  0  0
  2  4  1  0  0  0  0
  4  5  1  0  0  0  0
  5  6  1  0  0  0  0
  5  7  2  0  0  0  0
M  END
> <RowID>
123

> <Original_SMILES>
[K+].NC(=O)NC([O-])=O

> <Canonical_QSARr>
NC(=O)NC(O)=O

> <InChI_Code_QSARr>
InChI=1S/C2H4N2O3/c3-1(5)4-2(6)7/h(H,6,7)(H3,3,4,5)

> <InChI Key_QSARr>
AVWRKZWQTYIKIY-UHFFFAOYSA-N

> <Salt_Solvent>
[K+]

> <Salt_Solvent_ID>
190

> <Number of connected components>
2

$$$$
Molecule_124
  Mrv2316 01072400032D          

 20 19  0  0  0  0            999 V2000
    1.6500   -0.8250    0.0000 F   0  0  0  0  0  0  0  0  0  0  0  0
    0.8250   -0.8250    0.0000 C   0  0  0  0  0  0  0  0  0  0  0  0
    0.0000   -0.8250    0.0000 C   0  0  0  0  0  0  0  0  0  0  0  0
    0.0000   -1.6500    0.0000 F   0  0  0  0  0  0  0  0  0  0  0  0
    0.0000    0.0000    0.0000 F   0  0  0  0  0  0  0  0  0  0  0  0
   -0.8250   -0.8250    0.0000 C   0  0  0  0  0  0  0  0  0  0  0  0
   -0.8250   -1.6500    0.0000 F   0  0  0  0  0  0  0  0  0  0  0  0
   -0.8250   -0.0000    0.0000 F   0  0  0  0  0  0  0  0  0  0  0  0
   -1.6500   -0.8250    0.0000 C   0  0  0  0  0  0  0  0  0  0  0  0
   -2.4750   -0.8250    0.0000 F   0  0  0  0  0  0  0  0  0  0  0  0
   -1.6500   -1.6500    0.0000 F   0  0  0  0  0  0  0  0  0  0  0  0
   -1.6500   -0.0000    0.0000 F   0  0  0  0  0  0  0  0  0  0  0  0
    0.8250   -1.6500    0.0000 C   0  0  0  0  0  0  0  0  0  0  0  0
    0.8250   -2.4750    0.0000 F   0  0  0  0  0  0  0  0  0  0  0  0
    0.1576   -2.1349    0.0000 F   0  0  0  0  0  0  0  0  0  0  0  0
    1.6500   -1.6500    0.0000 F   0  0  0  0  0  0  0  0  0  0  0  0
    0.8250    0.0000    0.0000 C   0  0  0  0  0  0  0  0  0  0  0  0
    0.8250    0.8250    0.0000 F   0  0  0  0  0  0  0  0  0  0  0  0
    1.6500    0.0000    0.0000 F   0  0  0  0  0  0  0  0  0  0  0  0
    0.1576    0.4849    0.0000 F   0  0  0  0  0  0  0  0  0  0  0  0
  1  2  1  0  0  0  0
  2  3  1  0  0  0  0
  3  4  1  0  0  0  0
  3  5  1  0  0  0  0
  3  6  1  0  0  0  0
  6  7  1  0  0  0  0
  6  8  1  0  0  0  0
  6  9  1  0  0  0  0
  9 10  1  0  0  0  0
  9 11  1  0  0  0  0
  9 12  1  0  0  0  0
  2 13  1  0  0  0  0
 13 14  1  0  0  0  0
 13 15  1  0  0  0  0
 13 16  1  0  0  0  0
  2 17  1  0  0  0  0
 17 18  1  0  0  0  0
 17 19  1  0  0  0  0
 17 20  1  0  0  0  0
M  END
> <RowID>
124

> <Original_SMILES>
FC(C(F)(F)C(F)(F)C(F)(F)F)(C(F)(F)F)C(F)(F)F

> <Canonical_QSARr>
FC(C(F)(F)C(F)(F)C(F)(F)F)(C(F)(F)F)C(F)(F)F

> <InChI_Code_QSARr>
InChI=1S/C6F14/c7-1(4(12,13)14,5(15,16)17)2(8,9)3(10,11)6(18,19)20

> <InChI Key_QSARr>
ROVMKEZVKFJNBD-UHFFFAOYSA-N

> <Salt_Solvent>


> <Salt_Solvent_ID>
0

> <Number of connected components>
1

$$$$
Molecule_125
  Mrv2316 01072400032D          

  5  4  0  0  0  0            999 V2000
    0.8250    1.4289    0.0000 C   0  0  0  0  0  0  0  0  0  0  0  0
    1.2375    0.7145    0.0000 N   0  0  0  0  0  0  0  0  0  0  0  0
    0.8250   -0.0000    0.0000 C   0  0  0  0  0  0  0  0  0  0  0  0
    1.2375   -0.7145    0.0000 N   0  0  0  0  0  0  0  0  0  0  0  0
    0.0000   -0.0000    0.0000 O   0  0  0  0  0  0  0  0  0  0  0  0
  1  2  1  0  0  0  0
  2  3  1  0  0  0  0
  3  4  1  0  0  0  0
  3  5  2  0  0  0  0
M  END
> <RowID>
125

> <Original_SMILES>
CNC(N)=O

> <Canonical_QSARr>
CNC(N)=O

> <InChI_Code_QSARr>
InChI=1S/C2H6N2O/c1-4-2(3)5/h1H3,(H3,3,4,5)

> <InChI Key_QSARr>
XGEGHDBEHXKFPX-UHFFFAOYSA-N

> <Salt_Solvent>


> <Salt_Solvent_ID>
0

> <Number of connected components>
1

$$$$
Molecule_126
  Mrv2316 01072400032D          

 72 77  0  0  0  0            999 V2000
   12.8597  -14.3683    0.0000 O   0  0  0  0  0  0  0  0  0  0  0  0
   12.8597  -13.5433    0.0000 S   0  0  0  0  0  0  0  0  0  0  0  0
   13.6847  -13.5433    0.0000 O   0  0  0  0  0  0  0  0  0  0  0  0
   12.0347  -13.5433    0.0000 O   0  0  0  0  0  0  0  0  0  0  0  0
   12.8597  -12.7183    0.0000 C   0  0  0  0  0  0  0  0  0  0  0  0
   13.5741  -12.3058    0.0000 C   0  0  0  0  0  0  0  0  0  0  0  0
   13.5741  -11.4808    0.0000 C   0  0  0  0  0  0  0  0  0  0  0  0
   12.8597  -11.0683    0.0000 C   0  0  0  0  0  0  0  0  0  0  0  0
   12.8597  -10.2433    0.0000 N   0  0  0  0  0  0  0  0  0  0  0  0
   13.5741   -9.8308    0.0000 C   0  0  0  0  0  0  0  0  0  0  0  0
   14.2886  -10.2433    0.0000 N   0  0  0  0  0  0  0  0  0  0  0  0
   15.0031   -9.8308    0.0000 C   0  0  0  0  0  0  0  0  0  0  0  0
   15.7175  -10.2433    0.0000 N   0  0  0  0  0  0  0  0  0  0  0  0
   15.7175  -11.0683    0.0000 C   0  0  0  0  0  0  0  0  0  0  0  0
   15.0031  -11.4808    0.0000 C   0  0  0  0  0  0  0  0  0  0  0  0
   15.0031  -12.3058    0.0000 O   0  0  0  0  0  0  0  0  0  0  0  0
   16.4320   -9.8308    0.0000 C   0  0  0  0  0  0  0  0  0  0  0  0
   16.4320   -9.0058    0.0000 C   0  0  0  0  0  0  0  0  0  0  0  0
   17.1465   -8.5933    0.0000 O   0  0  0  0  0  0  0  0  0  0  0  0
   15.0031   -9.0058    0.0000 N   0  0  0  0  0  0  0  0  0  0  0  0
   14.2886   -8.5933    0.0000 C   0  0  0  0  0  0  0  0  0  0  0  0
   14.2886   -7.7683    0.0000 N   0  0  0  0  0  0  0  0  0  0  0  0
   13.5741   -7.3558    0.0000 C   0  0  0  0  0  0  0  0  0  0  0  0
   13.5741   -6.5308    0.0000 C   0  0  0  0  0  0  0  0  0  0  0  0
   12.8597   -6.1183    0.0000 C   0  0  0  0  0  0  0  0  0  0  0  0
   12.1452   -6.5308    0.0000 C   0  0  0  0  0  0  0  0  0  0  0  0
   11.4307   -6.1183    0.0000 C   0  0  0  0  0  0  0  0  0  0  0  0
   11.4307   -5.2933    0.0000 C   0  0  0  0  0  0  0  0  0  0  0  0
   10.7162   -4.8808    0.0000 C   0  0  0  0  0  0  0  0  0  0  0  0
   10.0018   -5.2933    0.0000 C   0  0  0  0  0  0  0  0  0  0  0  0
   10.0018   -6.1183    0.0000 S   0  0  0  0  0  0  0  0  0  0  0  0
   10.8268   -6.1183    0.0000 O   0  0  0  0  0  0  0  0  0  0  0  0
    9.1768   -6.1183    0.0000 O   0  0  0  0  0  0  0  0  0  0  0  0
   10.0018   -6.9433    0.0000 O   0  0  0  0  0  0  0  0  0  0  0  0
    9.2873   -4.8808    0.0000 C   0  0  0  0  0  0  0  0  0  0  0  0
    9.2873   -4.0558    0.0000 C   0  0  0  0  0  0  0  0  0  0  0  0
    8.5728   -3.6433    0.0000 N   0  0  0  0  0  0  0  0  0  0  0  0
    8.5728   -2.8183    0.0000 C   0  0  0  0  0  0  0  0  0  0  0  0
    9.2873   -2.4058    0.0000 N   0  0  0  0  0  0  0  0  0  0  0  0
    9.2873   -1.5808    0.0000 C   0  0  0  0  0  0  0  0  0  0  0  0
   10.0018   -1.1683    0.0000 N   0  0  0  0  0  0  0  0  0  0  0  0
   10.7162   -1.5808    0.0000 C   0  0  0  0  0  0  0  0  0  0  0  0
   10.7162   -2.4058    0.0000 C   0  0  0  0  0  0  0  0  0  0  0  0
   11.4307   -2.8183    0.0000 O   0  0  0  0  0  0  0  0  0  0  0  0
   10.0018   -0.3433    0.0000 C   0  0  0  0  0  0  0  0  0  0  0  0
    9.2873    0.0692    0.0000 C   0  0  0  0  0  0  0  0  0  0  0  0
    9.2873    0.8942    0.0000 O   0  0  0  0  0  0  0  0  0  0  0  0
    8.5728   -1.1683    0.0000 N   0  0  0  0  0  0  0  0  0  0  0  0
    7.8584   -1.5808    0.0000 C   0  0  0  0  0  0  0  0  0  0  0  0
    7.1439   -1.1683    0.0000 N   0  0  0  0  0  0  0  0  0  0  0  0
    6.4294   -1.5808    0.0000 C   0  0  0  0  0  0  0  0  0  0  0  0
    5.7149   -1.1683    0.0000 C   0  0  0  0  0  0  0  0  0  0  0  0
    5.0005   -1.5808    0.0000 C   0  0  0  0  0  0  0  0  0  0  0  0
    5.0005   -2.4058    0.0000 C   0  0  0  0  0  0  0  0  0  0  0  0
    4.2860   -2.8183    0.0000 S   0  0  0  0  0  0  0  0  0  0  0  0
    3.5715   -3.2308    0.0000 O   0  0  0  0  0  0  0  0  0  0  0  0
    3.8735   -2.1038    0.0000 O   0  0  0  0  0  0  0  0  0  0  0  0
    4.6985   -3.5327    0.0000 O   0  0  0  0  0  0  0  0  0  0  0  0
    5.7149   -2.8183    0.0000 C   0  0  0  0  0  0  0  0  0  0  0  0
    6.4294   -2.4058    0.0000 C   0  0  0  0  0  0  0  0  0  0  0  0
    7.8584   -2.4058    0.0000 N   0  0  0  0  0  0  0  0  0  0  0  0
   10.0018   -3.6433    0.0000 C   0  0  0  0  0  0  0  0  0  0  0  0
   10.7162   -4.0558    0.0000 C   0  0  0  0  0  0  0  0  0  0  0  0
   12.1452   -7.3558    0.0000 C   0  0  0  0  0  0  0  0  0  0  0  0
   11.4307   -7.7683    0.0000 S   0  0  0  0  0  0  0  0  0  0  0  0
   10.7162   -8.1808    0.0000 O   0  0  0  0  0  0  0  0  0  0  0  0
   11.8432   -8.4827    0.0000 O   0  0  0  0  0  0  0  0  0  0  0  0
   11.0182   -7.0538    0.0000 O   0  0  0  0  0  0  0  0  0  0  0  0
   12.8597   -7.7683    0.0000 C   0  0  0  0  0  0  0  0  0  0  0  0
   13.5741   -9.0058    0.0000 N   0  0  0  0  0  0  0  0  0  0  0  0
   12.1452  -11.4808    0.0000 C   0  0  0  0  0  0  0  0  0  0  0  0
   12.1452  -12.3058    0.0000 C   0  0  0  0  0  0  0  0  0  0  0  0
  1  2  1  0  0  0  0
  2  3  2  0  0  0  0
  2  4  2  0  0  0  0
  2  5  1  0  0  0  0
  6  5  2  0  0  0  0
  7  6  1  0  0  0  0
  8  7  2  0  0  0  0
  8  9  1  0  0  0  0
  9 10  1  0  0  0  0
 11 10  1  0  0  0  0
 12 11  2  0  0  0  0
 12 13  1  0  0  0  0
 13 14  1  0  0  0  0
 14 15  1  0  0  0  0
 15 16  1  0  0  0  0
 13 17  1  0  0  0  0
 17 18  1  0  0  0  0
 18 19  1  0  0  0  0
 20 12  1  0  0  0  0
 21 20  2  0  0  0  0
 21 22  1  0  0  0  0
 22 23  1  0  0  0  0
 24 23  1  0  0  0  0
 25 24  2  0  0  0  0
 26 25  1  0  0  0  0
 27 26  1  4  0  0  0
 27 28  2  0  0  0  0
 28 29  1  0  0  0  0
 30 29  2  0  0  0  0
 30 31  1  0  0  0  0
 31 32  1  0  0  0  0
 31 33  2  0  0  0  0
 31 34  2  0  0  0  0
 35 30  1  0  0  0  0
 36 35  2  0  0  0  0
 36 37  1  0  0  0  0
 37 38  1  0  0  0  0
 39 38  2  0  0  0  0
 40 39  1  0  0  0  0
 40 41  1  0  0  0  0
 41 42  1  0  0  0  0
 42 43  1  0  0  0  0
 43 44  1  0  0  0  0
 41 45  1  0  0  0  0
 45 46  1  0  0  0  0
 46 47  1  0  0  0  0
 48 40  2  0  0  0  0
 49 48  1  0  0  0  0
 49 50  1  0  0  0  0
 50 51  1  0  0  0  0
 52 51  2  0  0  0  0
 53 52  1  0  0  0  0
 54 53  2  0  0  0  0
 54 55  1  0  0  0  0
 55 56  1  0  0  0  0
 55 57  2  0  0  0  0
 55 58  2  0  0  0  0
 59 54  1  0  0  0  0
 60 59  2  0  0  0  0
 51 60  1  0  0  0  0
 61 49  2  0  0  0  0
 38 61  1  0  0  0  0
 62 36  1  0  0  0  0
 63 62  2  0  0  0  0
 29 63  1  0  0  0  0
 64 26  2  0  0  0  0
 64 65  1  0  0  0  0
 65 66  1  0  0  0  0
 65 67  2  0  0  0  0
 65 68  2  0  0  0  0
 69 64  1  0  0  0  0
 23 69  2  0  0  0  0
 70 21  1  0  0  0  0
 10 70  2  0  0  0  0
 71  8  1  0  0  0  0
 72 71  2  0  0  0  0
  5 72  1  0  0  0  0
M  END
> <RowID>
126

> <Original_SMILES>
[Na+].[Na+].[Na+].[Na+].[O-]S(=O)(=O)C1=CC(=CC=C1C=CC1=CC=C(C=C1S([O-])(=O)=O)NC1=NC(NC2C=CC(=CC=2)S([O-])(=O)=O)=NC(=N1)N(CCO)CCO)NC1=NC(NC2C=CC(=CC=2)S([O-])(=O)=O)=NC(=N1)N(CCO)CCO

> <Canonical_QSARr>
OS(=O)(=O)C1C=C(C=CC=1C=CC1C=CC(=CC=1S(O)(=O)=O)NC1N=C(NC2C=CC(=CC=2)S(O)(=O)=O)N=C(N=1)N(CCO)CCO)NC1N=C(NC2C=CC(=CC=2)S(O)(=O)=O)N=C(N=1)N(CCO)CCO

> <InChI_Code_QSARr>
InChI=1S/C40H44N12O16S4/c53-19-15-51(16-20-54)39-47-35(41-27-7-11-31(12-8-27)69(57,58)59)45-37(49-39)43-29-5-3-25(33(23-29)71(63,64)65)1-2-26-4-6-30(24-34(26)72(66,67)68)44-38-46-36(48-40(50-38)52(17-21-55)18-22-56)42-28-9-13-32(14-10-28)70(60,61)62/h1-14,23-24,53-56H,15-22H2,(H,57,58,59)(H,60,61,62)(H,63,64,65)(H,66,67,68)(H2,41,43,45,47,49)(H2,42,44,46,48,50)

> <InChI Key_QSARr>
JTPVHPYPNZIZKG-UHFFFAOYSA-N

> <Salt_Solvent>
[Na+]

> <Salt_Solvent_ID>
110

> <Number of connected components>
5

$$$$
Molecule_127
  Mrv2316 01072400032D          

 23 24  0  0  0  0            999 V2000
    5.0013    4.5375    0.0000 C   0  0  0  0  0  0  0  0  0  0  0  0
    5.7158    4.9500    0.0000 C   0  0  0  0  0  0  0  0  0  0  0  0
    6.4303    4.5375    0.0000 C   0  0  0  0  0  0  0  0  0  0  0  0
    7.1447    4.9500    0.0000 C   0  0  0  0  0  0  0  0  0  0  0  0
    7.8592    4.5375    0.0000 C   0  0  0  0  0  0  0  0  0  0  0  0
    8.5737    4.9500    0.0000 C   0  0  0  0  0  0  0  0  0  0  0  0
    8.5737    5.7750    0.0000 C   0  0  0  0  0  0  0  0  0  0  0  0
    9.2881    4.5375    0.0000 O   0  0  0  0  0  0  0  0  0  0  0  0
   10.0026    4.9500    0.0000 C   0  0  0  0  0  0  0  0  0  0  0  0
   10.0026    5.7750    0.0000 O   0  0  0  0  0  0  0  0  0  0  0  0
   10.7171    4.5375    0.0000 C   0  0  0  0  0  0  0  0  0  0  0  0
   11.4316    4.9500    0.0000 O   0  0  0  0  0  0  0  0  0  0  0  0
   12.1460    4.5375    0.0000 C   0  0  0  0  0  0  0  0  0  0  0  0
   12.8605    4.9500    0.0000 C   0  0  0  0  0  0  0  0  0  0  0  0
   13.5750    4.5375    0.0000 C   0  0  0  0  0  0  0  0  0  0  0  0
   13.5750    3.7125    0.0000 C   0  0  0  0  0  0  0  0  0  0  0  0
   14.2894    3.3000    0.0000 Cl  0  0  0  0  0  0  0  0  0  0  0  0
   12.8605    3.3000    0.0000 C   0  0  0  0  0  0  0  0  0  0  0  0
   12.8605    2.4750    0.0000 C   0  0  0  0  0  0  0  0  0  0  0  0
   12.1460    2.0625    0.0000 C   0  0  0  0  0  0  0  0  0  0  0  0
   11.4316    2.4750    0.0000 C   0  0  0  0  0  0  0  0  0  0  0  0
   11.4316    3.3000    0.0000 N   0  0  0  0  0  0  0  0  0  0  0  0
   12.1460    3.7125    0.0000 C   0  0  0  0  0  0  0  0  0  0  0  0
  1  2  1  0  0  0  0
  2  3  1  0  0  0  0
  3  4  1  0  0  0  0
  4  5  1  0  0  0  0
  5  6  1  0  0  0  0
  6  7  1  0  0  0  0
  6  8  1  0  0  0  0
  8  9  1  0  0  0  0
  9 10  2  0  0  0  0
  9 11  1  0  0  0  0
 11 12  1  0  0  0  0
 12 13  1  0  0  0  0
 14 13  2  0  0  0  0
 15 14  1  0  0  0  0
 16 15  2  0  0  0  0
 16 17  1  0  0  0  0
 18 16  1  0  0  0  0
 18 19  2  0  0  0  0
 19 20  1  0  0  0  0
 20 21  2  0  0  0  0
 21 22  1  0  0  0  0
 22 23  2  0  0  0  0
 13 23  1  0  0  0  0
 23 18  1  0  0  0  0
M  END
> <RowID>
127

> <Original_SMILES>
CCCCCC(C)OC(=O)COC1=CC=C(Cl)C2=CC=CN=C12

> <Canonical_QSARr>
CCCCCC(C)OC(=O)COC1=CC=C(Cl)C2=CC=CN=C12

> <InChI_Code_QSARr>
InChI=1S/C18H22ClNO3/c1-3-4-5-7-13(2)23-17(21)12-22-16-10-9-15(19)14-8-6-11-20-18(14)16/h6,8-11,13H,3-5,7,12H2,1-2H3

> <InChI Key_QSARr>
COYBRKAVBMYYSF-UHFFFAOYSA-N

> <Salt_Solvent>


> <Salt_Solvent_ID>
0

> <Number of connected components>
1

$$$$
Molecule_129
  Mrv2316 01072400032D          

 31 34  0  0  0  0            999 V2000
   -0.1105   -6.2407    0.0000 C   0  0  0  0  0  0  0  0  0  0  0  0
    0.7145   -6.2407    0.0000 C   0  0  0  0  0  0  0  0  0  0  0  0
    1.5395   -6.2407    0.0000 C   0  0  0  0  0  0  0  0  0  0  0  0
    0.7145   -5.4157    0.0000 C   0  0  0  0  0  0  0  0  0  0  0  0
    1.4289   -5.0032    0.0000 C   0  0  0  0  0  0  0  0  0  0  0  0
    1.4289   -4.1782    0.0000 C   0  0  0  0  0  0  0  0  0  0  0  0
    0.7145   -3.7657    0.0000 C   0  0  0  0  0  0  0  0  0  0  0  0
    0.7145   -2.9407    0.0000 N   0  0  0  0  0  0  0  0  0  0  0  0
    0.0000   -2.5282    0.0000 C   0  0  0  0  0  0  0  0  0  0  0  0
    0.0000   -1.7032    0.0000 C   0  0  0  0  0  0  0  0  0  0  0  0
   -0.7145   -1.2907    0.0000 C   0  0  0  0  0  0  0  0  0  0  0  0
   -1.4289   -1.7032    0.0000 C   0  0  0  0  0  0  0  0  0  0  0  0
   -2.1434   -1.2907    0.0000 C   0  0  0  0  0  0  0  0  0  0  0  0
   -2.5559   -2.0052    0.0000 C   0  0  0  0  0  0  0  0  0  0  0  0
   -1.7309   -0.5763    0.0000 C   0  0  0  0  0  0  0  0  0  0  0  0
   -2.8579   -0.8782    0.0000 C   0  0  0  0  0  0  0  0  0  0  0  0
   -2.8579   -0.0532    0.0000 C   0  0  0  0  0  0  0  0  0  0  0  0
   -3.5724    0.3593    0.0000 C   0  0  0  0  0  0  0  0  0  0  0  0
   -4.2868   -0.0532    0.0000 C   0  0  0  0  0  0  0  0  0  0  0  0
   -4.2868   -0.8782    0.0000 C   0  0  0  0  0  0  0  0  0  0  0  0
   -3.5724   -1.2907    0.0000 C   0  0  0  0  0  0  0  0  0  0  0  0
   -1.4289   -2.5282    0.0000 C   0  0  0  0  0  0  0  0  0  0  0  0
   -0.7145   -2.9407    0.0000 C   0  0  0  0  0  0  0  0  0  0  0  0
    0.0000   -4.1782    0.0000 C   0  0  0  0  0  0  0  0  0  0  0  0
    0.0000   -5.0032    0.0000 C   0  0  0  0  0  0  0  0  0  0  0  0
    0.7145   -7.0657    0.0000 C   0  0  0  0  0  0  0  0  0  0  0  0
    0.0000   -7.4782    0.0000 C   0  0  0  0  0  0  0  0  0  0  0  0
    0.0000   -8.3032    0.0000 C   0  0  0  0  0  0  0  0  0  0  0  0
    0.7145   -8.7157    0.0000 C   0  0  0  0  0  0  0  0  0  0  0  0
    1.4289   -8.3032    0.0000 C   0  0  0  0  0  0  0  0  0  0  0  0
    1.4289   -7.4782    0.0000 C   0  0  0  0  0  0  0  0  0  0  0  0
  1  2  1  0  0  0  0
  2  3  1  0  0  0  0
  2  4  1  0  0  0  0
  5  4  1  0  0  0  0
  6  5  2  0  0  0  0
  7  6  1  0  0  0  0
  7  8  1  0  0  0  0
  8  9  1  0  0  0  0
 10  9  1  0  0  0  0
 11 10  2  0  0  0  0
 12 11  1  0  0  0  0
 12 13  1  0  0  0  0
 13 14  1  0  0  0  0
 13 15  1  0  0  0  0
 13 16  1  0  0  0  0
 17 16  1  0  0  0  0
 18 17  2  0  0  0  0
 19 18  1  0  0  0  0
 20 19  2  0  0  0  0
 21 20  1  0  0  0  0
 16 21  2  0  0  0  0
 22 12  2  0  0  0  0
 23 22  1  0  0  0  0
  9 23  2  0  0  0  0
 24  7  2  0  0  0  0
 25 24  1  0  0  0  0
  4 25  2  0  0  0  0
  2 26  1  0  0  0  0
 27 26  1  0  0  0  0
 28 27  2  0  0  0  0
 29 28  1  0  0  0  0
 30 29  2  0  0  0  0
 31 30  1  0  0  0  0
 26 31  2  0  0  0  0
M  END
> <RowID>
129

> <Original_SMILES>
CC(C)(C1C=CC(=CC=1)NC1C=CC(=CC=1)C(C)(C)C1C=CC=CC=1)C1C=CC=CC=1

> <Canonical_QSARr>
CC(C)(C1C=CC(=CC=1)NC1C=CC(=CC=1)C(C)(C)C1C=CC=CC=1)C1C=CC=CC=1

> <InChI_Code_QSARr>
InChI=1S/C30H31N/c1-29(2,23-11-7-5-8-12-23)25-15-19-27(20-16-25)31-28-21-17-26(18-22-28)30(3,4)24-13-9-6-10-14-24/h5-22,31H,1-4H3

> <InChI Key_QSARr>
UJAWGGOCYUPCPS-UHFFFAOYSA-N

> <Salt_Solvent>


> <Salt_Solvent_ID>
0

> <Number of connected components>
1

$$$$
Molecule_130
  Mrv2316 01072400032D          

 40 45  0  0  0  0            999 V2000
    8.5791    1.4133    0.0000 C   0  0  0  0  0  0  0  0  0  0  0  0
    7.8647    1.0008    0.0000 C   0  0  0  0  0  0  0  0  0  0  0  0
    7.8647    0.1758    0.0000 C   0  0  0  0  0  0  0  0  0  0  0  0
    7.1502   -0.2367    0.0000 C   0  0  0  0  0  0  0  0  0  0  0  0
    7.1502   -1.0617    0.0000 O   0  0  0  0  0  0  0  0  0  0  0  0
    6.4357   -1.4742    0.0000 C   0  0  0  0  0  0  0  0  0  0  0  0
    6.4357   -2.2992    0.0000 C   0  0  0  0  0  0  0  0  0  0  0  0
    5.7213   -2.7117    0.0000 C   0  0  0  0  0  0  0  0  0  0  0  0
    5.7213   -3.5367    0.0000 N   0  0  0  0  0  0  0  0  0  0  0  0
    5.0068   -3.9492    0.0000 C   0  0  0  0  0  0  0  0  0  0  0  0
    5.0068   -4.7742    0.0000 C   0  0  0  0  0  0  0  0  0  0  0  0
    4.2923   -5.1867    0.0000 C   0  0  0  0  0  0  0  0  0  0  0  0
    4.2923   -6.0117    0.0000 C   0  0  0  0  0  0  0  0  0  0  0  0
    6.4357   -3.9492    0.0000 C   0  0  0  0  0  0  0  0  0  0  0  0
    6.4357   -4.7742    0.0000 C   0  0  0  0  0  0  0  0  0  0  0  0
    7.1502   -5.1867    0.0000 C   0  0  0  0  0  0  0  0  0  0  0  0
    7.1502   -6.0117    0.0000 C   0  0  0  0  0  0  0  0  0  0  0  0
    5.0068   -2.2992    0.0000 C   0  0  0  0  0  0  0  0  0  0  0  0
    5.0068   -1.4742    0.0000 C   0  0  0  0  0  0  0  0  0  0  0  0
    5.7213   -1.0617    0.0000 C   0  0  0  0  0  0  0  0  0  0  0  0
    5.7213   -0.2367    0.0000 C   0  0  0  0  0  0  0  0  0  0  0  0
    4.9676   -0.5723    0.0000 O   0  0  0  0  0  0  0  0  0  0  0  0
    4.4156    0.0408    0.0000 C   0  0  0  0  0  0  0  0  0  0  0  0
    3.5951   -0.0454    0.0000 O   0  0  0  0  0  0  0  0  0  0  0  0
    4.8281    0.7553    0.0000 C   0  0  0  0  0  0  0  0  0  0  0  0
    4.5731    1.5399    0.0000 C   0  0  0  0  0  0  0  0  0  0  0  0
    5.1251    2.1530    0.0000 C   0  0  0  0  0  0  0  0  0  0  0  0
    5.9321    1.9815    0.0000 C   0  0  0  0  0  0  0  0  0  0  0  0
    6.1871    1.1969    0.0000 C   0  0  0  0  0  0  0  0  0  0  0  0
    5.6350    0.5838    0.0000 C   0  0  0  0  0  0  0  0  0  0  0  0
    6.4357    0.1758    0.0000 C   0  0  0  0  0  0  0  0  0  0  0  0
    6.4357    1.0008    0.0000 C   0  0  0  0  0  0  0  0  0  0  0  0
    7.1502    1.4133    0.0000 C   0  0  0  0  0  0  0  0  0  0  0  0
    7.1502    2.2383    0.0000 N   0  0  0  0  0  0  0  0  0  0  0  0
    7.8647    2.6508    0.0000 C   0  0  0  0  0  0  0  0  0  0  0  0
    8.5791    2.2383    0.0000 C   0  0  0  0  0  0  0  0  0  0  0  0
    9.2936    2.6508    0.0000 C   0  0  0  0  0  0  0  0  0  0  0  0
    9.2936    3.4758    0.0000 C   0  0  0  0  0  0  0  0  0  0  0  0
    8.5791    3.8883    0.0000 C   0  0  0  0  0  0  0  0  0  0  0  0
    7.8647    3.4758    0.0000 C   0  0  0  0  0  0  0  0  0  0  0  0
  1  2  1  0  0  0  0
  3  2  2  0  0  0  0
  4  3  1  0  0  0  0
  4  5  1  0  0  0  0
  5  6  1  0  0  0  0
  7  6  1  0  0  0  0
  8  7  2  0  0  0  0
  8  9  1  0  0  0  0
  9 10  1  0  0  0  0
 10 11  1  0  0  0  0
 11 12  1  0  0  0  0
 12 13  1  0  0  0  0
  9 14  1  0  0  0  0
 14 15  1  0  0  0  0
 15 16  1  0  0  0  0
 16 17  1  0  0  0  0
 18  8  1  0  0  0  0
 19 18  2  0  0  0  0
 20 19  1  0  0  0  0
  6 20  2  0  0  0  0
 20 21  1  0  0  0  0
 22 21  1  0  0  0  0
 23 22  1  0  0  0  0
 23 24  2  0  0  0  0
 25 23  1  0  0  0  0
 25 26  1  0  0  0  0
 26 27  2  0  0  0  0
 27 28  1  0  0  0  0
 28 29  2  0  0  0  0
 29 30  1  0  0  0  0
 21 30  1  0  0  0  0
 30 25  2  0  0  0  0
 21 31  1  0  0  0  0
 31  4  2  0  0  0  0
 32 31  1  0  0  0  0
 33 32  2  0  0  0  0
  2 33  1  0  0  0  0
 33 34  1  0  0  0  0
 34 35  1  0  0  0  0
 36 35  1  0  0  0  0
 37 36  2  0  0  0  0
 38 37  1  0  0  0  0
 39 38  2  0  0  0  0
 40 39  1  0  0  0  0
 35 40  2  0  0  0  0
M  END
> <RowID>
130

> <Original_SMILES>
CC1=CC2OC3C=C(C=CC=3C3(OC(=O)C4C=CC=CC3=4)C=2C=C1NC1C=CC=CC=1)N(CCCC)CCCC

> <Canonical_QSARr>
CC1=CC2OC3C=C(C=CC=3C3(OC(=O)C4C=CC=CC3=4)C=2C=C1NC1C=CC=CC=1)N(CCCC)CCCC

> <InChI_Code_QSARr>
InChI=1S/C35H36N2O3/c1-4-6-19-37(20-7-5-2)26-17-18-29-33(22-26)39-32-21-24(3)31(36-25-13-9-8-10-14-25)23-30(32)35(29)28-16-12-11-15-27(28)34(38)40-35/h8-18,21-23,36H,4-7,19-20H2,1-3H3

> <InChI Key_QSARr>
XAAILNNJDMIMON-UHFFFAOYSA-N

> <Salt_Solvent>


> <Salt_Solvent_ID>
0

> <Number of connected components>
1

$$$$
Molecule_131
  Mrv2316 01072400032D          

 12 12  0  0  0  0            999 V2000
    1.7111   -0.7752    0.0000 C   0  0  0  0  0  0  0  0  0  0  0  0
    1.4289    0.0000    0.0000 C   0  0  0  0  0  0  0  0  0  0  0  0
    1.4289    0.8250    0.0000 N   0  0  0  0  0  0  0  0  0  0  0  0
    2.1434    1.2375    0.0000 O   0  0  0  0  0  0  0  0  0  0  0  0
    0.7145    1.2375    0.0000 C   0  0  0  0  0  0  0  0  0  0  0  0
    1.2448    1.8695    0.0000 C   0  0  0  0  0  0  0  0  0  0  0  0
    0.1842    1.8695    0.0000 C   0  0  0  0  0  0  0  0  0  0  0  0
   -0.0000    0.8250    0.0000 C   0  0  0  0  0  0  0  0  0  0  0  0
   -0.0000    0.0000    0.0000 C   0  0  0  0  0  0  0  0  0  0  0  0
   -0.7145   -0.4125    0.0000 O   0  0  0  0  0  0  0  0  0  0  0  0
    0.7145   -0.4125    0.0000 C   0  0  0  0  0  0  0  0  0  0  0  0
    2.2414    0.1433    0.0000 C   0  0  0  0  0  0  0  0  0  0  0  0
  1  2  1  0  0  0  0
  3  2  1  0  0  0  0
  3  4  1  0  0  0  0
  5  3  1  0  0  0  0
  5  6  1  0  0  0  0
  5  7  1  0  0  0  0
  8  5  1  0  0  0  0
  9  8  1  0  0  0  0
  9 10  1  0  0  0  0
 11  9  1  0  0  0  0
  2 11  1  0  0  0  0
  2 12  1  0  0  0  0
M  END
> <RowID>
131

> <Original_SMILES>
CC1(C)CC(O)CC(C)(C)N1O.CC1(C)CC(O)CC(C)(C)N1O.CC1(C)CC(O)CC(C)(C)N1O.OC(=O)C(O)(CC(O)=O)CC(O)=O

> <Canonical_QSARr>
CC1(C)CC(O)CC(C)(C)N1O

> <InChI_Code_QSARr>
InChI=1S/C9H19NO2/c1-8(2)5-7(11)6-9(3,4)10(8)12/h7,11-12H,5-6H2,1-4H3

> <InChI Key_QSARr>
CSGAUKGQUCHWDP-UHFFFAOYSA-N

> <Salt_Solvent>
OC(C(CC(=O)O)(CC(=O)O)O)=O

> <Salt_Solvent_ID>
4155

> <Number of connected components>
4

$$$$
Molecule_132
  Mrv2316 01072400032D          

  6  5  0  0  0  0            999 V2000
    1.2375   -0.7145    0.0000 S   0  0  0  0  0  0  0  0  0  0  0  0
    0.8250   -0.0000    0.0000 C   0  0  0  0  0  0  0  0  0  0  0  0
    1.2375    0.7145    0.0000 N   0  0  0  0  0  0  0  0  0  0  0  0
    0.8250    1.4289    0.0000 C   0  0  0  0  0  0  0  0  0  0  0  0
    2.0625    0.7145    0.0000 C   0  0  0  0  0  0  0  0  0  0  0  0
    0.0000   -0.0000    0.0000 S   0  0  0  0  0  0  0  0  0  0  0  0
  1  2  1  0  0  0  0
  2  3  1  0  0  0  0
  3  4  1  0  0  0  0
  3  5  1  0  0  0  0
  2  6  2  0  0  0  0
M  END
> <RowID>
132

> <Original_SMILES>
[Na+].CN(C)C([S-])=S

> <Canonical_QSARr>
CN(C)C(S)=S

> <InChI_Code_QSARr>
InChI=1S/C3H7NS2/c1-4(2)3(5)6/h1-2H3,(H,5,6)

> <InChI Key_QSARr>
MZGNSEAPZQGJRB-UHFFFAOYSA-N

> <Salt_Solvent>
[Na+]

> <Salt_Solvent_ID>
110

> <Number of connected components>
2

$$$$
Molecule_133
  Mrv2316 01072400032D          

 25 28  0  0  0  0            999 V2000
   -0.8857   -2.5394    0.0000 C   0  0  0  0  0  0  0  0  0  0  0  0
   -0.1712   -2.1269    0.0000 C   0  0  0  0  0  0  0  0  0  0  0  0
    0.5433   -1.7144    0.0000 C   0  0  0  0  0  0  0  0  0  0  0  0
    0.2413   -2.8413    0.0000 C   0  0  0  0  0  0  0  0  0  0  0  0
   -0.5837   -1.4124    0.0000 N   0  0  0  0  0  0  0  0  0  0  0  0
   -1.4087   -1.4124    0.0000 S   0  0  0  0  0  0  0  0  0  0  0  0
   -1.8212   -2.1269    0.0000 C   0  0  0  0  0  0  0  0  0  0  0  0
   -1.4857   -2.8806    0.0000 N   0  0  0  0  0  0  0  0  0  0  0  0
   -2.0987   -3.4326    0.0000 C   0  0  0  0  0  0  0  0  0  0  0  0
   -2.0987   -4.2576    0.0000 C   0  0  0  0  0  0  0  0  0  0  0  0
   -2.8132   -4.6701    0.0000 C   0  0  0  0  0  0  0  0  0  0  0  0
   -3.5277   -4.2576    0.0000 C   0  0  0  0  0  0  0  0  0  0  0  0
   -3.5277   -3.4326    0.0000 C   0  0  0  0  0  0  0  0  0  0  0  0
   -2.8132   -3.0201    0.0000 C   0  0  0  0  0  0  0  0  0  0  0  0
   -2.6417   -2.2131    0.0000 S   0  0  0  0  0  0  0  0  0  0  0  0
   -0.1712   -0.6979    0.0000 S   0  0  0  0  0  0  0  0  0  0  0  0
    0.6538   -0.6979    0.0000 C   0  0  0  0  0  0  0  0  0  0  0  0
    1.1387   -0.0305    0.0000 N   0  0  0  0  0  0  0  0  0  0  0  0
    1.9233   -0.2854    0.0000 C   0  0  0  0  0  0  0  0  0  0  0  0
    2.6378    0.1271    0.0000 C   0  0  0  0  0  0  0  0  0  0  0  0
    3.3523   -0.2854    0.0000 C   0  0  0  0  0  0  0  0  0  0  0  0
    3.3523   -1.1104    0.0000 C   0  0  0  0  0  0  0  0  0  0  0  0
    2.6378   -1.5229    0.0000 C   0  0  0  0  0  0  0  0  0  0  0  0
    1.9233   -1.1104    0.0000 C   0  0  0  0  0  0  0  0  0  0  0  0
    1.1387   -1.3654    0.0000 S   0  0  0  0  0  0  0  0  0  0  0  0
  1  2  1  0  0  0  0
  2  3  1  0  0  0  0
  2  4  1  0  0  0  0
  2  5  1  0  0  0  0
  5  6  1  0  0  0  0
  6  7  1  0  0  0  0
  8  7  2  0  0  0  0
  9  8  1  0  0  0  0
  9 10  1  0  0  0  0
 10 11  2  0  0  0  0
 11 12  1  0  0  0  0
 12 13  2  0  0  0  0
 13 14  1  0  0  0  0
 14  9  2  0  0  0  0
 15 14  1  0  0  0  0
  7 15  1  0  0  0  0
  5 16  1  0  0  0  0
 16 17  1  0  0  0  0
 18 17  2  0  0  0  0
 19 18  1  0  0  0  0
 19 20  1  0  0  0  0
 20 21  2  0  0  0  0
 21 22  1  0  0  0  0
 22 23  2  0  0  0  0
 23 24  1  0  0  0  0
 24 19  2  0  0  0  0
 25 24  1  0  0  0  0
 17 25  1  0  0  0  0
M  END
> <RowID>
133

> <Original_SMILES>
CC(C)(C)N(SC1=NC2C=CC=CC=2S1)SC1=NC2C=CC=CC=2S1

> <Canonical_QSARr>
CC(C)(C)N(SC1=NC2C=CC=CC=2S1)SC1=NC2C=CC=CC=2S1

> <InChI_Code_QSARr>
InChI=1S/C18H17N3S4/c1-18(2,3)21(24-16-19-12-8-4-6-10-14(12)22-16)25-17-20-13-9-5-7-11-15(13)23-17/h4-11H,1-3H3

> <InChI Key_QSARr>
VILGDADBAQFRJE-UHFFFAOYSA-N

> <Salt_Solvent>


> <Salt_Solvent_ID>
0

> <Number of connected components>
1

$$$$
Molecule_134
  Mrv2316 01072400032D          

 15 16  0  0  0  0            999 V2000
   -0.3984    0.7541    0.0000 O   0  0  0  0  0  0  0  0  0  0  0  0
   -0.1435   -0.0305    0.0000 C   0  0  0  0  0  0  0  0  0  0  0  0
   -0.6284   -0.6979    0.0000 O   0  0  0  0  0  0  0  0  0  0  0  0
   -0.1435   -1.3654    0.0000 C   0  0  0  0  0  0  0  0  0  0  0  0
   -0.3984   -2.1500    0.0000 O   0  0  0  0  0  0  0  0  0  0  0  0
    0.6411   -1.1104    0.0000 C   0  0  0  0  0  0  0  0  0  0  0  0
    0.6411   -0.2854    0.0000 C   0  0  0  0  0  0  0  0  0  0  0  0
    1.3556    0.1271    0.0000 C   0  0  0  0  0  0  0  0  0  0  0  0
    1.3556    0.9521    0.0000 Cl  0  0  0  0  0  0  0  0  0  0  0  0
    2.0701   -0.2854    0.0000 C   0  0  0  0  0  0  0  0  0  0  0  0
    2.7845    0.1271    0.0000 Cl  0  0  0  0  0  0  0  0  0  0  0  0
    2.0701   -1.1104    0.0000 C   0  0  0  0  0  0  0  0  0  0  0  0
    2.7845   -1.5229    0.0000 Cl  0  0  0  0  0  0  0  0  0  0  0  0
    1.3556   -1.5229    0.0000 C   0  0  0  0  0  0  0  0  0  0  0  0
    1.3556   -2.3479    0.0000 Cl  0  0  0  0  0  0  0  0  0  0  0  0
  1  2  2  0  0  0  0
  3  2  1  0  0  0  0
  4  3  1  0  0  0  0
  4  5  2  0  0  0  0
  6  4  1  0  0  0  0
  6  7  1  0  0  0  0
  2  7  1  0  0  0  0
  7  8  2  0  0  0  0
  8  9  1  0  0  0  0
  8 10  1  0  0  0  0
 10 11  1  0  0  0  0
 10 12  2  0  0  0  0
 12 13  1  0  0  0  0
 12 14  1  0  0  0  0
 14  6  2  0  0  0  0
 14 15  1  0  0  0  0
M  END
> <RowID>
134

> <Original_SMILES>
O=C1OC(=O)C2C1=C(Cl)C(Cl)=C(Cl)C=2Cl

> <Canonical_QSARr>
O=C1OC(=O)C2C1=C(Cl)C(Cl)=C(Cl)C=2Cl

> <InChI_Code_QSARr>
InChI=1S/C8Cl4O3/c9-3-1-2(8(14)15-7(1)13)4(10)6(12)5(3)11

> <InChI Key_QSARr>
AUHHYELHRWCWEZ-UHFFFAOYSA-N

> <Salt_Solvent>


> <Salt_Solvent_ID>
0

> <Number of connected components>
1

$$$$
Molecule_135
  Mrv2316 01072400032D          

 22 23  0  0  0  0            999 V2000
    4.7740   -4.1437    0.0000 C   0  0  0  0  0  0  0  0  0  0  0  0
    4.0595   -3.7312    0.0000 C   0  0  0  0  0  0  0  0  0  0  0  0
    4.4720   -3.0168    0.0000 C   0  0  0  0  0  0  0  0  0  0  0  0
    3.6470   -4.4457    0.0000 C   0  0  0  0  0  0  0  0  0  0  0  0
    3.3450   -3.3188    0.0000 C   0  0  0  0  0  0  0  0  0  0  0  0
    3.3450   -2.4937    0.0000 C   0  0  0  0  0  0  0  0  0  0  0  0
    2.6306   -2.0813    0.0000 C   0  0  0  0  0  0  0  0  0  0  0  0
    2.6306   -1.2562    0.0000 C   0  0  0  0  0  0  0  0  0  0  0  0
    1.9161   -0.8438    0.0000 C   0  0  0  0  0  0  0  0  0  0  0  0
    1.9161   -0.0187    0.0000 C   0  0  0  0  0  0  0  0  0  0  0  0
    1.2016    0.3937    0.0000 C   0  0  0  0  0  0  0  0  0  0  0  0
    0.4871   -0.0188    0.0000 C   0  0  0  0  0  0  0  0  0  0  0  0
    0.4871   -0.8438    0.0000 C   0  0  0  0  0  0  0  0  0  0  0  0
    1.2016   -1.2563    0.0000 C   0  0  0  0  0  0  0  0  0  0  0  0
    1.9161   -2.4937    0.0000 C   0  0  0  0  0  0  0  0  0  0  0  0
    1.9161   -3.3188    0.0000 C   0  0  0  0  0  0  0  0  0  0  0  0
    1.2016   -3.7313    0.0000 C   0  0  0  0  0  0  0  0  0  0  0  0
    0.4871   -4.1438    0.0000 C   0  0  0  0  0  0  0  0  0  0  0  0
    1.6141   -4.4457    0.0000 C   0  0  0  0  0  0  0  0  0  0  0  0
    0.7891   -3.0168    0.0000 C   0  0  0  0  0  0  0  0  0  0  0  0
    2.6306   -3.7313    0.0000 C   0  0  0  0  0  0  0  0  0  0  0  0
    2.6306   -4.5563    0.0000 O   0  0  0  0  0  0  0  0  0  0  0  0
  1  2  1  0  0  0  0
  2  3  1  0  0  0  0
  2  4  1  0  0  0  0
  2  5  1  0  0  0  0
  6  5  2  0  0  0  0
  7  6  1  0  0  0  0
  7  8  2  0  0  0  0
  8  9  1  0  0  0  0
 10  9  1  0  0  0  0
 11 10  2  0  0  0  0
 12 11  1  0  0  0  0
 13 12  2  0  0  0  0
 14 13  1  0  0  0  0
  9 14  2  0  0  0  0
 15  7  1  0  0  0  0
 16 15  2  0  0  0  0
 16 17  1  0  0  0  0
 17 18  1  0  0  0  0
 17 19  1  0  0  0  0
 17 20  1  0  0  0  0
 21 16  1  0  0  0  0
  5 21  1  0  0  0  0
 21 22  2  0  0  0  0
M  END
> <RowID>
135

> <Original_SMILES>
CC(C)(C)C1=CC(C=C(C1=O)C(C)(C)C)=CC1C=CC=CC=1

> <Canonical_QSARr>
CC(C)(C)C1=CC(C=C(C1=O)C(C)(C)C)=CC1C=CC=CC=1

> <InChI_Code_QSARr>
InChI=1S/C21H26O/c1-20(2,3)17-13-16(12-15-10-8-7-9-11-15)14-18(19(17)22)21(4,5)6/h7-14H,1-6H3

> <InChI Key_QSARr>
HCUWXYBKPSKTAB-UHFFFAOYSA-N

> <Salt_Solvent>


> <Salt_Solvent_ID>
0

> <Number of connected components>
1

$$$$
Molecule_136
  Mrv2316 01072400032D          

 15 16  0  0  0  0            999 V2000
    2.4719    1.3572    0.0000 C   0  0  0  0  0  0  0  0  0  0  0  0
    1.9870    2.0247    0.0000 C   0  0  0  0  0  0  0  0  0  0  0  0
    2.3226    2.7783    0.0000 C   0  0  0  0  0  0  0  0  0  0  0  0
    1.8376    3.4458    0.0000 C   0  0  0  0  0  0  0  0  0  0  0  0
    1.0172    3.3595    0.0000 C   0  0  0  0  0  0  0  0  0  0  0  0
    0.5322    4.0270    0.0000 C   0  0  0  0  0  0  0  0  0  0  0  0
    0.7872    4.8116    0.0000 N   0  0  0  0  0  0  0  0  0  0  0  0
    0.1197    5.2965    0.0000 C   0  0  0  0  0  0  0  0  0  0  0  0
    0.1197    6.1215    0.0000 C   0  0  0  0  0  0  0  0  0  0  0  0
    0.1197    6.9465    0.0000 N   0  0  0  0  0  0  0  0  0  0  0  0
   -0.5477    4.8116    0.0000 N   0  0  0  0  0  0  0  0  0  0  0  0
   -0.2928    4.0270    0.0000 C   0  0  0  0  0  0  0  0  0  0  0  0
   -0.7777    3.3595    0.0000 Cl  0  0  0  0  0  0  0  0  0  0  0  0
    0.6816    2.6059    0.0000 C   0  0  0  0  0  0  0  0  0  0  0  0
    1.1665    1.9384    0.0000 C   0  0  0  0  0  0  0  0  0  0  0  0
  1  2  1  0  0  0  0
  3  2  1  0  0  0  0
  4  3  2  0  0  0  0
  5  4  1  0  0  0  0
  5  6  1  0  0  0  0
  7  6  1  0  0  0  0
  8  7  1  0  0  0  0
  8  9  1  0  0  0  0
  9 10  3  0  0  0  0
 11  8  2  0  0  0  0
 12 11  1  0  0  0  0
  6 12  2  0  0  0  0
 12 13  1  0  0  0  0
 14  5  2  0  0  0  0
 15 14  1  0  0  0  0
  2 15  2  0  0  0  0
M  END
> <RowID>
136

> <Original_SMILES>
CC1C=CC(=CC=1)C1NC(C#N)=NC=1Cl

> <Canonical_QSARr>
CC1C=CC(=CC=1)C1NC(C#N)=NC=1Cl

> <InChI_Code_QSARr>
InChI=1S/C11H8ClN3/c1-7-2-4-8(5-3-7)10-11(12)15-9(6-13)14-10/h2-5H,1H3,(H,14,15)

> <InChI Key_QSARr>
AHLIZUWPYRQFHY-UHFFFAOYSA-N

> <Salt_Solvent>


> <Salt_Solvent_ID>
0

> <Number of connected components>
1

$$$$
Molecule_137
  Mrv2316 01072400032D          

  9  9  0  0  0  0            999 V2000
    0.2971    0.2812    0.0000 C   0  0  0  0  0  0  0  0  0  0  0  0
   -0.1878   -0.3862    0.0000 O   0  0  0  0  0  0  0  0  0  0  0  0
    0.1477   -1.1399    0.0000 C   0  0  0  0  0  0  0  0  0  0  0  0
    1.1221    0.2812    0.0000 N   0  0  0  0  0  0  0  0  0  0  0  0
    1.3770    1.0658    0.0000 N   0  0  0  0  0  0  0  0  0  0  0  0
    0.7096    1.5508    0.0000 C   0  0  0  0  0  0  0  0  0  0  0  0
    0.7096    2.3758    0.0000 O   0  0  0  0  0  0  0  0  0  0  0  0
    0.0421    1.0658    0.0000 N   0  0  0  0  0  0  0  0  0  0  0  0
   -0.7425    1.3208    0.0000 C   0  0  0  0  0  0  0  0  0  0  0  0
  1  2  1  0  0  0  0
  2  3  1  0  0  0  0
  4  1  1  0  0  0  0
  5  4  2  0  0  0  0
  6  5  1  0  0  0  0
  6  7  2  0  0  0  0
  8  6  1  0  0  0  0
  1  8  1  0  0  0  0
  8  9  1  0  0  0  0
M  END
> <RowID>
137

> <Original_SMILES>
CN1C(=O)NN=C1OC

> <Canonical_QSARr>
COC1N=NC(=O)N1C

> <InChI_Code_QSARr>
InChI=1S/C4H7N3O2/c1-7-3(8)5-6-4(7)9-2/h4H,1-2H3

> <InChI Key_QSARr>
RTOQTCDUYVGRPX-UHFFFAOYSA-N

> <Salt_Solvent>


> <Salt_Solvent_ID>
0

> <Number of connected components>
1

$$$$
Molecule_138
  Mrv2316 01072400032D          

 14 15  0  0  0  0            999 V2000
    3.9806    0.0000    0.0000 C   0  0  0  0  0  0  0  0  0  0  0  0
    3.2661   -0.4125    0.0000 C   0  0  0  0  0  0  0  0  0  0  0  0
    3.2661   -1.2375    0.0000 C   0  0  0  0  0  0  0  0  0  0  0  0
    2.5517   -1.6500    0.0000 C   0  0  0  0  0  0  0  0  0  0  0  0
    2.5517   -2.4750    0.0000 C   0  0  0  0  0  0  0  0  0  0  0  0
    3.2661   -2.8875    0.0000 C   0  0  0  0  0  0  0  0  0  0  0  0
    3.9806   -2.4750    0.0000 C   0  0  0  0  0  0  0  0  0  0  0  0
    3.9806   -1.6500    0.0000 C   0  0  0  0  0  0  0  0  0  0  0  0
    2.5517    0.0000    0.0000 C   0  0  0  0  0  0  0  0  0  0  0  0
    2.5517    0.8250    0.0000 C   0  0  0  0  0  0  0  0  0  0  0  0
    1.8372    1.2375    0.0000 C   0  0  0  0  0  0  0  0  0  0  0  0
    1.1227    0.8250    0.0000 C   0  0  0  0  0  0  0  0  0  0  0  0
    1.1227    0.0000    0.0000 C   0  0  0  0  0  0  0  0  0  0  0  0
    1.8372   -0.4125    0.0000 C   0  0  0  0  0  0  0  0  0  0  0  0
  1  2  2  0  0  0  0
  2  3  1  0  0  0  0
  4  3  1  0  0  0  0
  5  4  2  0  0  0  0
  6  5  1  0  0  0  0
  7  6  2  0  0  0  0
  8  7  1  0  0  0  0
  3  8  2  0  0  0  0
  2  9  1  0  0  0  0
 10  9  1  0  0  0  0
 11 10  2  0  0  0  0
 12 11  1  0  0  0  0
 13 12  2  0  0  0  0
 14 13  1  0  0  0  0
  9 14  2  0  0  0  0
M  END
> <RowID>
138

> <Original_SMILES>
C=C(C1C=CC=CC=1)C1C=CC=CC=1

> <Canonical_QSARr>
C=C(C1C=CC=CC=1)C1C=CC=CC=1

> <InChI_Code_QSARr>
InChI=1S/C14H12/c1-12(13-8-4-2-5-9-13)14-10-6-3-7-11-14/h2-11H,1H2

> <InChI Key_QSARr>
ZMYIIHDQURVDRB-UHFFFAOYSA-N

> <Salt_Solvent>


> <Salt_Solvent_ID>
0

> <Number of connected components>
1

$$$$
Molecule_139
  Mrv2316 01072400032D          

 17 19  0  0  0  0            999 V2000
   -0.4136   -0.9094    0.0000 C   0  0  0  0  0  0  0  0  0  0  0  0
    0.1505   -0.3073    0.0000 C   0  0  0  0  0  0  0  0  0  0  0  0
    0.9539   -0.4947    0.0000 C   0  0  0  0  0  0  0  0  0  0  0  0
    1.5179    0.1074    0.0000 N   0  0  0  0  0  0  0  0  0  0  0  0
    2.3427    0.0911    0.0000 C   0  0  0  0  0  0  0  0  0  0  0  0
    3.0005   -0.4069    0.0000 O   0  0  0  0  0  0  0  0  0  0  0  0
    3.6774    0.0648    0.0000 C   0  0  0  0  0  0  0  0  0  0  0  0
    4.4568   -0.2056    0.0000 C   0  0  0  0  0  0  0  0  0  0  0  0
    5.0807    0.3343    0.0000 O   0  0  0  0  0  0  0  0  0  0  0  0
    3.4379    0.8543    0.0000 C   0  0  0  0  0  0  0  0  0  0  0  0
    3.9359    1.5120    0.0000 O   0  0  0  0  0  0  0  0  0  0  0  0
    2.6131    0.8705    0.0000 C   0  0  0  0  0  0  0  0  0  0  0  0
    1.9553    1.3685    0.0000 O   0  0  0  0  0  0  0  0  0  0  0  0
    1.2785    0.8969    0.0000 C   0  0  0  0  0  0  0  0  0  0  0  0
    0.4750    1.0843    0.0000 N   0  0  0  0  0  0  0  0  0  0  0  0
   -0.0890    0.4822    0.0000 C   0  0  0  0  0  0  0  0  0  0  0  0
   -0.8924    0.6696    0.0000 O   0  0  0  0  0  0  0  0  0  0  0  0
  1  2  1  0  0  0  0
  3  2  2  0  0  0  0
  4  3  1  0  0  0  0
  4  5  1  0  0  0  0
  6  5  1  0  0  0  0
  7  6  1  0  0  0  0
  7  8  1  0  0  0  0
  8  9  1  0  0  0  0
 10  7  1  0  0  0  0
 10 11  1  0  0  0  0
 12 10  1  0  0  0  0
  5 12  1  0  0  0  0
 12 13  1  0  0  0  0
 13 14  1  0  0  0  0
 14  4  1  0  0  0  0
 15 14  2  0  0  0  0
 16 15  1  0  0  0  0
  2 16  1  0  0  0  0
 16 17  2  0  0  0  0
M  END
> <RowID>
139

> <Original_SMILES>
CC1=CN2C3OC(CO)C(O)C3OC2=NC1=O

> <Canonical_QSARr>
CC1=CN2C3OC(CO)C(O)C3OC2=NC1=O

> <InChI_Code_QSARr>
InChI=1S/C10H12N2O5/c1-4-2-12-9-7(6(14)5(3-13)16-9)17-10(12)11-8(4)15/h2,5-7,9,13-14H,3H2,1H3

> <InChI Key_QSARr>
WLLOAUCNUMYOQI-UHFFFAOYSA-N

> <Salt_Solvent>


> <Salt_Solvent_ID>
0

> <Number of connected components>
1

$$$$
Molecule_140
  Mrv2316 01072400032D          

 11 11  0  0  0  0            999 V2000
    2.3383   -1.2000    0.0000 C   0  0  0  0  0  0  0  0  0  0  0  0
    1.6238   -0.7875    0.0000 C   0  0  0  0  0  0  0  0  0  0  0  0
    1.6238    0.0375    0.0000 C   0  0  0  0  0  0  0  0  0  0  0  0
    0.9093    0.4500    0.0000 C   0  0  0  0  0  0  0  0  0  0  0  0
    0.9093    1.2750    0.0000 C   0  0  0  0  0  0  0  0  0  0  0  0
    1.6238    1.6875    0.0000 C   0  0  0  0  0  0  0  0  0  0  0  0
    1.6238    2.5125    0.0000 C   0  0  0  0  0  0  0  0  0  0  0  0
    0.1949    0.0375    0.0000 C   0  0  0  0  0  0  0  0  0  0  0  0
    0.1949   -0.7875    0.0000 C   0  0  0  0  0  0  0  0  0  0  0  0
   -0.5196   -1.2000    0.0000 O   0  0  0  0  0  0  0  0  0  0  0  0
    0.9093   -1.2000    0.0000 C   0  0  0  0  0  0  0  0  0  0  0  0
  1  2  1  0  0  0  0
  3  2  1  0  0  0  0
  4  3  1  0  0  0  0
  4  5  1  0  0  0  0
  5  6  1  0  0  0  0
  6  7  1  0  0  0  0
  8  4  1  0  0  0  0
  9  8  1  0  0  0  0
  9 10  2  0  0  0  0
 11  9  1  0  0  0  0
  2 11  2  0  0  0  0
M  END
> <RowID>
140

> <Original_SMILES>
CC1CC(CCC)CC(=O)C=1

> <Canonical_QSARr>
CC1CC(CCC)CC(=O)C=1

> <InChI_Code_QSARr>
InChI=1S/C10H16O/c1-3-4-9-5-8(2)6-10(11)7-9/h6,9H,3-5,7H2,1-2H3

> <InChI Key_QSARr>
URQMEZRQHLCJKR-UHFFFAOYSA-N

> <Salt_Solvent>


> <Salt_Solvent_ID>
0

> <Number of connected components>
1

$$$$
Molecule_141
  Mrv2316 01072400032D          

  5  4  0  0  0  0            999 V2000
    0.8250   -0.8250    0.0000 C   0  0  0  0  0  0  0  0  0  0  0  0
    0.8250    0.0000    0.0000 N   0  3  0  0  0  0  0  0  0  0  0  0
    0.8250    0.8250    0.0000 C   0  0  0  0  0  0  0  0  0  0  0  0
    1.6500   -0.0000    0.0000 C   0  0  0  0  0  0  0  0  0  0  0  0
    0.0000    0.0000    0.0000 C   0  0  0  0  0  0  0  0  0  0  0  0
  1  2  1  0  0  0  0
  2  3  1  0  0  0  0
  2  4  1  0  0  0  0
  2  5  1  0  0  0  0
M  CHG  1   2   1
M  END
> <RowID>
141

> <Original_SMILES>
[Cl-].C[N+](C)(C)C

> <Canonical_QSARr>
C[N+](C)(C)C

> <InChI_Code_QSARr>
InChI=1S/C4H12N/c1-5(2,3)4/h1-4H3/q+1

> <InChI Key_QSARr>
QEMXHQIAXOOASZ-UHFFFAOYSA-N

> <Salt_Solvent>
[Cl-]

> <Salt_Solvent_ID>
170

> <Number of connected components>
2

$$$$
Molecule_142
  Mrv2316 01072400032D          

 14 14  0  0  0  0            999 V2000
   -0.3530    0.4936    0.0000 N   0  0  0  0  0  0  0  0  0  0  0  0
   -0.7655    1.2080    0.0000 P   0  0  0  0  0  0  0  0  0  0  0  0
   -1.1780    1.9225    0.0000 N   0  0  0  0  0  0  0  0  0  0  0  0
   -1.4800    0.7955    0.0000 O   0  0  0  0  0  0  0  0  0  0  0  0
   -0.0510    1.6205    0.0000 N   0  0  0  0  0  0  0  0  0  0  0  0
    0.6634    1.2080    0.0000 C   0  0  0  0  0  0  0  0  0  0  0  0
    0.6634    0.3830    0.0000 C   0  0  0  0  0  0  0  0  0  0  0  0
    1.3779   -0.0295    0.0000 C   0  0  0  0  0  0  0  0  0  0  0  0
    2.0924    0.3830    0.0000 C   0  0  0  0  0  0  0  0  0  0  0  0
    2.0924    1.2080    0.0000 C   0  0  0  0  0  0  0  0  0  0  0  0
    1.3779    1.6205    0.0000 C   0  0  0  0  0  0  0  0  0  0  0  0
    1.3779    2.4455    0.0000 N   0  3  0  0  0  0  0  0  0  0  0  0
    0.6634    2.8580    0.0000 O   0  5  0  0  0  0  0  0  0  0  0  0
    2.0924    2.8580    0.0000 O   0  0  0  0  0  0  0  0  0  0  0  0
  1  2  1  0  0  0  0
  2  3  1  0  0  0  0
  2  4  2  0  0  0  0
  2  5  1  0  0  0  0
  5  6  1  0  0  0  0
  7  6  2  0  0  0  0
  8  7  1  0  0  0  0
  9  8  2  0  0  0  0
 10  9  1  0  0  0  0
 11 10  2  0  0  0  0
  6 11  1  0  0  0  0
 11 12  1  0  0  0  0
 12 13  1  0  0  0  0
 12 14  2  0  0  0  0
M  CHG  2  12   1  13  -1
M  END
> <RowID>
142

> <Original_SMILES>
NP(N)(=O)NC1=CC=CC=C1[N+]([O-])=O

> <Canonical_QSARr>
NP(N)(=O)NC1=CC=CC=C1[N+]([O-])=O

> <InChI_Code_QSARr>
InChI=1S/C6H9N4O3P/c7-14(8,13)9-5-3-1-2-4-6(5)10(11)12/h1-4H,(H5,7,8,9,13)

> <InChI Key_QSARr>
GDPVISFVPDYFPN-UHFFFAOYSA-N

> <Salt_Solvent>


> <Salt_Solvent_ID>
0

> <Number of connected components>
1

$$$$
Molecule_143
  Mrv2316 01072400032D          

 11 11  0  0  0  0            999 V2000
    1.1816   -0.9113    0.0000 N   0  0  0  0  0  0  0  0  0  0  0  0
    0.6967   -0.2439    0.0000 C   0  0  0  0  0  0  0  0  0  0  0  0
   -0.1238   -0.3301    0.0000 O   0  0  0  0  0  0  0  0  0  0  0  0
    1.0322    0.5098    0.0000 N   0  0  0  0  0  0  0  0  0  0  0  0
    0.5473    1.1773    0.0000 C   0  0  0  0  0  0  0  0  0  0  0  0
    0.8023    1.9619    0.0000 N   0  0  0  0  0  0  0  0  0  0  0  0
    0.1348    2.4468    0.0000 C   0  0  0  0  0  0  0  0  0  0  0  0
    0.1348    3.2718    0.0000 O   0  0  0  0  0  0  0  0  0  0  0  0
   -0.5326    1.9619    0.0000 N   0  0  0  0  0  0  0  0  0  0  0  0
   -0.2777    1.1773    0.0000 C   0  0  0  0  0  0  0  0  0  0  0  0
   -0.7626    0.5098    0.0000 O   0  0  0  0  0  0  0  0  0  0  0  0
  1  2  1  0  0  0  0
  2  3  2  0  0  0  0
  2  4  1  0  0  0  0
  4  5  1  0  0  0  0
  6  5  1  0  0  0  0
  7  6  1  0  0  0  0
  7  8  2  0  0  0  0
  9  7  1  0  0  0  0
 10  9  1  0  0  0  0
  5 10  1  0  0  0  0
 10 11  2  0  0  0  0
M  END
> <RowID>
143

> <Original_SMILES>
NC(=O)NC1NC(=O)NC1=O

> <Canonical_QSARr>
NC(=O)NC1NC(=O)NC1=O

> <InChI_Code_QSARr>
InChI=1S/C4H6N4O3/c5-3(10)6-1-2(9)8-4(11)7-1/h1H,(H3,5,6,10)(H2,7,8,9,11)

> <InChI Key_QSARr>
POJWUDADGALRAB-UHFFFAOYSA-N

> <Salt_Solvent>


> <Salt_Solvent_ID>
0

> <Number of connected components>
1

$$$$
Molecule_144
  Mrv2316 01072400032D          

 22 21  0  0  0  0            999 V2000
    8.4711    5.7158    0.0000 C   0  0  0  0  0  0  0  0  0  0  0  0
    9.1855    6.1283    0.0000 C   0  0  0  0  0  0  0  0  0  0  0  0
    9.9000    5.7158    0.0000 C   0  0  0  0  0  0  0  0  0  0  0  0
   10.6145    6.1283    0.0000 C   0  0  0  0  0  0  0  0  0  0  0  0
   11.3289    5.7158    0.0000 O   0  0  0  0  0  0  0  0  0  0  0  0
   12.0434    6.1283    0.0000 C   0  0  0  0  0  0  0  0  0  0  0  0
   12.0434    6.9533    0.0000 O   0  0  0  0  0  0  0  0  0  0  0  0
   12.7579    5.7158    0.0000 C   0  0  0  0  0  0  0  0  0  0  0  0
   13.4723    6.1283    0.0000 C   0  0  0  0  0  0  0  0  0  0  0  0
   14.1868    5.7158    0.0000 C   0  0  0  0  0  0  0  0  0  0  0  0
   14.9013    6.1283    0.0000 C   0  0  0  0  0  0  0  0  0  0  0  0
   15.6158    5.7158    0.0000 C   0  0  0  0  0  0  0  0  0  0  0  0
   16.3302    6.1283    0.0000 C   0  0  0  0  0  0  0  0  0  0  0  0
   17.0447    5.7158    0.0000 C   0  0  0  0  0  0  0  0  0  0  0  0
   17.7592    6.1283    0.0000 C   0  0  0  0  0  0  0  0  0  0  0  0
   18.4736    5.7158    0.0000 C   0  0  0  0  0  0  0  0  0  0  0  0
   18.4736    4.8908    0.0000 O   0  0  0  0  0  0  0  0  0  0  0  0
   19.1881    6.1283    0.0000 O   0  0  0  0  0  0  0  0  0  0  0  0
   19.9026    5.7158    0.0000 C   0  0  0  0  0  0  0  0  0  0  0  0
   20.6171    6.1283    0.0000 C   0  0  0  0  0  0  0  0  0  0  0  0
   21.3315    5.7158    0.0000 C   0  0  0  0  0  0  0  0  0  0  0  0
   22.0460    6.1283    0.0000 C   0  0  0  0  0  0  0  0  0  0  0  0
  1  2  1  0  0  0  0
  2  3  1  0  0  0  0
  3  4  1  0  0  0  0
  4  5  1  0  0  0  0
  5  6  1  0  0  0  0
  6  7  2  0  0  0  0
  6  8  1  0  0  0  0
  8  9  1  0  0  0  0
  9 10  1  0  0  0  0
 10 11  1  0  0  0  0
 11 12  1  0  0  0  0
 12 13  1  0  0  0  0
 13 14  1  0  0  0  0
 14 15  1  0  0  0  0
 15 16  1  0  0  0  0
 16 17  2  0  0  0  0
 16 18  1  0  0  0  0
 18 19  1  0  0  0  0
 19 20  1  0  0  0  0
 20 21  1  0  0  0  0
 21 22  1  0  0  0  0
M  END
> <RowID>
144

> <Original_SMILES>
CCCCOC(=O)CCCCCCCCC(=O)OCCCC

> <Canonical_QSARr>
CCCCOC(=O)CCCCCCCCC(=O)OCCCC

> <InChI_Code_QSARr>
InChI=1S/C18H34O4/c1-3-5-15-21-17(19)13-11-9-7-8-10-12-14-18(20)22-16-6-4-2/h3-16H2,1-2H3

> <InChI Key_QSARr>
PYGXAGIECVVIOZ-UHFFFAOYSA-N

> <Salt_Solvent>


> <Salt_Solvent_ID>
0

> <Number of connected components>
1

$$$$
Molecule_145
  Mrv2316 01072400032D          

 23 26  0  0  0  0            999 V2000
    3.5330   -1.1543    0.0000 C   0  0  0  0  0  0  0  0  0  0  0  0
    3.8928   -1.8966    0.0000 C   0  0  0  0  0  0  0  0  0  0  0  0
    4.4247   -1.2659    0.0000 C   0  0  0  0  0  0  0  0  0  0  0  0
    5.2368   -1.4111    0.0000 C   0  0  0  0  0  0  0  0  0  0  0  0
    5.5171   -2.1871    0.0000 C   0  0  0  0  0  0  0  0  0  0  0  0
    4.9853   -2.8178    0.0000 C   0  0  0  0  0  0  0  0  0  0  0  0
    5.2656   -3.5937    0.0000 C   0  0  0  0  0  0  0  0  0  0  0  0
    6.0777   -3.7389    0.0000 C   0  0  0  0  0  0  0  0  0  0  0  0
    6.6095   -3.1082    0.0000 C   0  0  0  0  0  0  0  0  0  0  0  0
    7.4216   -3.2534    0.0000 C   0  0  0  0  0  0  0  0  0  0  0  0
    7.9534   -2.6227    0.0000 C   0  0  0  0  0  0  0  0  0  0  0  0
    8.7656   -2.7679    0.0000 O   0  0  0  0  0  0  0  0  0  0  0  0
    7.6731   -1.8468    0.0000 C   0  0  0  0  0  0  0  0  0  0  0  0
    6.8610   -1.7016    0.0000 C   0  0  0  0  0  0  0  0  0  0  0  0
    6.3292   -2.3323    0.0000 C   0  0  0  0  0  0  0  0  0  0  0  0
    6.0489   -1.5563    0.0000 C   0  0  0  0  0  0  0  0  0  0  0  0
    4.1731   -2.6725    0.0000 C   0  0  0  0  0  0  0  0  0  0  0  0
    3.5218   -3.1789    0.0000 C   0  0  0  0  0  0  0  0  0  0  0  0
    2.8390   -2.7159    0.0000 C   0  0  0  0  0  0  0  0  0  0  0  0
    3.0683   -1.9234    0.0000 C   0  0  0  0  0  0  0  0  0  0  0  0
    2.3074   -1.6046    0.0000 O   0  0  0  0  0  0  0  0  0  0  0  0
    2.9469   -1.1074    0.0000 C   0  0  0  0  0  0  0  0  0  0  0  0
    2.8255   -0.2914    0.0000 C   0  0  0  0  0  0  0  0  0  0  0  0
  1  2  1  0  0  0  0
  3  2  1  0  0  0  0
  4  3  1  0  0  0  0
  5  4  1  0  0  0  0
  5  6  1  0  0  0  0
  6  7  1  0  0  0  0
  7  8  1  0  0  0  0
  8  9  1  0  0  0  0
 10  9  2  0  0  0  0
 11 10  1  0  0  0  0
 11 12  2  0  0  0  0
 13 11  1  0  0  0  0
 14 13  1  0  0  0  0
 15 14  1  0  0  0  0
  9 15  1  0  0  0  0
 15  5  1  0  0  0  0
 15 16  1  0  0  0  0
 17  6  1  0  0  0  0
 17  2  1  0  0  0  0
 18 17  1  0  0  0  0
 19 18  1  0  0  0  0
 20 19  1  0  0  0  0
  2 20  1  0  0  0  0
 20 21  1  0  0  0  0
 20 22  1  0  0  0  0
 22 23  3  0  0  0  0
M  END
> <RowID>
145

> <Original_SMILES>
CC12CCC3C(CCC4=CC(=O)CCC43C)C1CCC2(O)C#C

> <Canonical_QSARr>
CC12CCC3C(CCC4=CC(=O)CCC43C)C1CCC2(O)C#C

> <InChI_Code_QSARr>
InChI=1S/C21H28O2/c1-4-21(23)12-9-18-16-6-5-14-13-15(22)7-10-19(14,2)17(16)8-11-20(18,21)3/h1,13,16-18,23H,5-12H2,2-3H3

> <InChI Key_QSARr>
CHNXZKVNWQUJIB-UHFFFAOYSA-N

> <Salt_Solvent>


> <Salt_Solvent_ID>
0

> <Number of connected components>
1

$$$$
Molecule_146
  Mrv2316 01072400032D          

 29 30  0  0  0  0            999 V2000
    5.0259   -8.7905    0.0000 C   0  0  0  0  0  0  0  0  0  0  0  0
    5.0259   -9.6155    0.0000 C   0  0  0  0  0  0  0  0  0  0  0  0
    4.3115  -10.0280    0.0000 C   0  0  0  0  0  0  0  0  0  0  0  0
    3.5970   -9.6155    0.0000 C   0  0  0  0  0  0  0  0  0  0  0  0
    3.5970   -8.7905    0.0000 O   0  0  0  0  0  0  0  0  0  0  0  0
    2.8825  -10.0280    0.0000 O   0  0  0  0  0  0  0  0  0  0  0  0
    2.1681   -9.6155    0.0000 C   0  0  0  0  0  0  0  0  0  0  0  0
    5.7404  -10.0280    0.0000 C   0  0  0  0  0  0  0  0  0  0  0  0
    5.7404  -10.8530    0.0000 O   0  0  0  0  0  0  0  0  0  0  0  0
    6.4549   -9.6155    0.0000 C   0  0  0  0  0  0  0  0  0  0  0  0
    6.4549   -8.7905    0.0000 C   0  0  0  0  0  0  0  0  0  0  0  0
    7.1693   -8.3780    0.0000 C   0  0  0  0  0  0  0  0  0  0  0  0
    7.1693   -7.5530    0.0000 N   0  3  0  0  0  0  0  0  0  0  0  0
    7.8838   -7.1405    0.0000 O   0  5  0  0  0  0  0  0  0  0  0  0
    6.4549   -7.1405    0.0000 O   0  0  0  0  0  0  0  0  0  0  0  0
    7.8838   -8.7905    0.0000 C   0  0  0  0  0  0  0  0  0  0  0  0
    8.5983   -8.3780    0.0000 N   0  0  0  0  0  0  0  0  0  0  0  0
    9.3128   -8.7905    0.0000 C   0  0  0  0  0  0  0  0  0  0  0  0
    9.3128   -9.6155    0.0000 O   0  0  0  0  0  0  0  0  0  0  0  0
   10.0272   -8.3780    0.0000 C   0  0  0  0  0  0  0  0  0  0  0  0
   10.7417   -8.7905    0.0000 C   0  0  0  0  0  0  0  0  0  0  0  0
   11.4562   -8.3780    0.0000 C   0  0  0  0  0  0  0  0  0  0  0  0
   11.4562   -7.5530    0.0000 C   0  0  0  0  0  0  0  0  0  0  0  0
   12.1706   -7.1405    0.0000 O   0  0  0  0  0  0  0  0  0  0  0  0
   12.1706   -6.3155    0.0000 C   0  0  0  0  0  0  0  0  0  0  0  0
   10.7417   -7.1405    0.0000 C   0  0  0  0  0  0  0  0  0  0  0  0
   10.0272   -7.5530    0.0000 C   0  0  0  0  0  0  0  0  0  0  0  0
    7.8838   -9.6155    0.0000 C   0  0  0  0  0  0  0  0  0  0  0  0
    7.1693  -10.0280    0.0000 C   0  0  0  0  0  0  0  0  0  0  0  0
  1  2  1  0  0  0  0
  2  3  1  0  0  0  0
  3  4  1  0  0  0  0
  4  5  2  0  0  0  0
  4  6  1  0  0  0  0
  6  7  1  0  0  0  0
  2  8  1  0  0  0  0
  8  9  2  0  0  0  0
  8 10  1  0  0  0  0
 11 10  2  0  0  0  0
 12 11  1  0  0  0  0
 12 13  1  0  0  0  0
 13 14  1  0  0  0  0
 13 15  2  0  0  0  0
 16 12  2  0  0  0  0
 16 17  1  0  0  0  0
 17 18  1  0  0  0  0
 18 19  2  0  0  0  0
 18 20  1  0  0  0  0
 21 20  1  0  0  0  0
 22 21  2  0  0  0  0
 23 22  1  0  0  0  0
 23 24  1  0  0  0  0
 24 25  1  0  0  0  0
 26 23  2  0  0  0  0
 27 26  1  0  0  0  0
 20 27  2  0  0  0  0
 28 16  1  0  0  0  0
 29 28  2  0  0  0  0
 10 29  1  0  0  0  0
M  CHG  2  13   1  14  -1
M  END
> <RowID>
146

> <Original_SMILES>
CC(CC(=O)OC)C(=O)C1=CC(=C(C=C1)NC(=O)C1C=CC(=CC=1)OC)[N+]([O-])=O

> <Canonical_QSARr>
CC(CC(=O)OC)C(=O)C1=CC(=C(C=C1)NC(=O)C1C=CC(=CC=1)OC)[N+]([O-])=O

> <InChI_Code_QSARr>
InChI=1S/C20H20N2O7/c1-12(10-18(23)29-3)19(24)14-6-9-16(17(11-14)22(26)27)21-20(25)13-4-7-15(28-2)8-5-13/h4-9,11-12H,10H2,1-3H3,(H,21,25)

> <InChI Key_QSARr>
BVRUHPOPLACNJO-UHFFFAOYSA-N

> <Salt_Solvent>


> <Salt_Solvent_ID>
0

> <Number of connected components>
1

$$$$
Molecule_148
  Mrv2316 01072400032D          

  6  5  0  0  0  0            999 V2000
    1.2375    2.1434    0.0000 C   0  0  0  0  0  0  0  0  0  0  0  0
    0.8250    1.4289    0.0000 O   0  0  0  0  0  0  0  0  0  0  0  0
    1.2375    0.7145    0.0000 C   0  0  0  0  0  0  0  0  0  0  0  0
    0.8250   -0.0000    0.0000 C   0  0  0  0  0  0  0  0  0  0  0  0
    1.2375   -0.7145    0.0000 C   0  0  0  0  0  0  0  0  0  0  0  0
    0.0000   -0.0000    0.0000 O   0  0  0  0  0  0  0  0  0  0  0  0
  1  2  1  0  0  0  0
  2  3  1  0  0  0  0
  3  4  1  0  0  0  0
  4  5  1  0  0  0  0
  4  6  1  0  0  0  0
M  END
> <RowID>
148

> <Original_SMILES>
COCC(C)O

> <Canonical_QSARr>
COCC(C)O

> <InChI_Code_QSARr>
InChI=1S/C4H10O2/c1-4(5)3-6-2/h4-5H,3H2,1-2H3

> <InChI Key_QSARr>
ARXJGSRGQADJSQ-UHFFFAOYSA-N

> <Salt_Solvent>


> <Salt_Solvent_ID>
0

> <Number of connected components>
1

$$$$
Molecule_149
  Mrv2316 01072400032D          

 26 30  0  0  0  0            999 V2000
    2.1434   -5.3625    0.0000 C   0  0  0  0  0  0  0  0  0  0  0  0
    2.8579   -4.9500    0.0000 C   0  0  0  0  0  0  0  0  0  0  0  0
    3.5724   -5.3625    0.0000 C   0  0  0  0  0  0  0  0  0  0  0  0
    4.2868   -4.9500    0.0000 C   0  0  0  0  0  0  0  0  0  0  0  0
    4.2868   -4.1250    0.0000 C   0  0  0  0  0  0  0  0  0  0  0  0
    5.0013   -3.7125    0.0000 N   0  0  0  0  0  0  0  0  0  0  0  0
    5.7158   -4.1250    0.0000 C   0  0  0  0  0  0  0  0  0  0  0  0
    6.4302   -3.7125    0.0000 C   0  0  0  0  0  0  0  0  0  0  0  0
    7.1447   -4.1250    0.0000 C   0  0  0  0  0  0  0  0  0  0  0  0
    7.1447   -4.9500    0.0000 C   0  0  0  0  0  0  0  0  0  0  0  0
    7.8592   -5.3625    0.0000 N   0  0  0  0  0  0  0  0  0  0  0  0
    8.5737   -4.9500    0.0000 C   0  0  0  0  0  0  0  0  0  0  0  0
    9.2881   -5.3625    0.0000 C   0  0  0  0  0  0  0  0  0  0  0  0
   10.0026   -4.9500    0.0000 C   0  0  0  0  0  0  0  0  0  0  0  0
   10.0026   -4.1250    0.0000 C   0  0  0  0  0  0  0  0  0  0  0  0
   10.7171   -3.7125    0.0000 C   0  0  0  0  0  0  0  0  0  0  0  0
    9.2881   -3.7125    0.0000 C   0  0  0  0  0  0  0  0  0  0  0  0
    8.5737   -4.1250    0.0000 C   0  0  0  0  0  0  0  0  0  0  0  0
    7.8592   -3.7125    0.0000 C   0  0  0  0  0  0  0  0  0  0  0  0
    7.8592   -2.8875    0.0000 O   0  0  0  0  0  0  0  0  0  0  0  0
    6.4302   -5.3625    0.0000 C   0  0  0  0  0  0  0  0  0  0  0  0
    5.7158   -4.9500    0.0000 C   0  0  0  0  0  0  0  0  0  0  0  0
    5.0013   -5.3625    0.0000 C   0  0  0  0  0  0  0  0  0  0  0  0
    5.0013   -6.1875    0.0000 O   0  0  0  0  0  0  0  0  0  0  0  0
    3.5724   -3.7125    0.0000 C   0  0  0  0  0  0  0  0  0  0  0  0
    2.8579   -4.1250    0.0000 C   0  0  0  0  0  0  0  0  0  0  0  0
  1  2  1  0  0  0  0
  3  2  2  0  0  0  0
  4  3  1  0  0  0  0
  4  5  2  0  0  0  0
  5  6  1  0  0  0  0
  6  7  1  0  0  0  0
  8  7  2  0  0  0  0
  9  8  1  0  0  0  0
  9 10  2  0  0  0  0
 10 11  1  0  0  0  0
 11 12  1  0  0  0  0
 13 12  2  0  0  0  0
 14 13  1  0  0  0  0
 15 14  2  0  0  0  0
 15 16  1  0  0  0  0
 17 15  1  0  0  0  0
 18 17  2  0  0  0  0
 12 18  1  0  0  0  0
 18 19  1  0  0  0  0
 19  9  1  0  0  0  0
 19 20  2  0  0  0  0
 21 10  1  0  0  0  0
 22 21  2  0  0  0  0
  7 22  1  0  0  0  0
 22 23  1  0  0  0  0
 23  4  1  0  0  0  0
 23 24  2  0  0  0  0
 25  5  1  0  0  0  0
 26 25  2  0  0  0  0
  2 26  1  0  0  0  0
M  END
> <RowID>
149

> <Original_SMILES>
CC1=CC2=C(C=C1)NC1=CC3=C(C=C1C2=O)NC1=CC=C(C)C=C1C3=O

> <Canonical_QSARr>
CC1=CC2=C(C=C1)NC1=CC3=C(C=C1C2=O)NC1=CC=C(C)C=C1C3=O

> <InChI_Code_QSARr>
InChI=1S/C22H16N2O2/c1-11-3-5-17-13(7-11)21(25)15-9-20-16(10-19(15)23-17)22(26)14-8-12(2)4-6-18(14)24-20/h3-10H,1-2H3,(H,23,25)(H,24,26)

> <InChI Key_QSARr>
TXWSZJSDZKWQAU-UHFFFAOYSA-N

> <Salt_Solvent>


> <Salt_Solvent_ID>
0

> <Number of connected components>
1

$$$$
Molecule_150
  Mrv2316 01072400032D          

 12 12  0  0  0  0            999 V2000
    3.3342    1.3750    0.0000 C   0  0  0  0  0  0  0  0  0  0  0  0
    2.6197    0.9625    0.0000 C   0  0  0  0  0  0  0  0  0  0  0  0
    1.9053    1.3750    0.0000 O   0  0  0  0  0  0  0  0  0  0  0  0
    1.1908    0.9625    0.0000 C   0  0  0  0  0  0  0  0  0  0  0  0
    0.4763    1.3750    0.0000 C   0  0  0  0  0  0  0  0  0  0  0  0
    0.4763    2.2000    0.0000 C   0  0  0  0  0  0  0  0  0  0  0  0
   -0.2382    2.6125    0.0000 N   0  0  0  0  0  0  0  0  0  0  0  0
    1.1908    2.6125    0.0000 N   0  0  0  0  0  0  0  0  0  0  0  0
   -0.2382    0.9625    0.0000 C   0  0  0  0  0  0  0  0  0  0  0  0
   -0.2382    0.1375    0.0000 C   0  0  0  0  0  0  0  0  0  0  0  0
    0.4763   -0.2750    0.0000 C   0  0  0  0  0  0  0  0  0  0  0  0
    1.1908    0.1375    0.0000 C   0  0  0  0  0  0  0  0  0  0  0  0
  1  2  1  0  0  0  0
  2  3  1  0  0  0  0
  3  4  1  0  0  0  0
  5  4  1  0  0  0  0
  5  6  1  0  0  0  0
  6  7  2  0  0  0  0
  6  8  1  0  0  0  0
  9  5  2  0  0  0  0
 10  9  1  0  0  0  0
 11 10  2  0  0  0  0
 12 11  1  0  0  0  0
  4 12  2  0  0  0  0
M  END
> <RowID>
150

> <Original_SMILES>
Cl.CCOC1=CC=CC=C1C(N)=N

> <Canonical_QSARr>
CCOC1=CC=CC=C1C(N)=N

> <InChI_Code_QSARr>
InChI=1S/C9H12N2O/c1-2-12-8-6-4-3-5-7(8)9(10)11/h3-6H,2H2,1H3,(H3,10,11)

> <InChI Key_QSARr>
GOSDGLKRVHPJEV-UHFFFAOYSA-N

> <Salt_Solvent>
Cl

> <Salt_Solvent_ID>
170

> <Number of connected components>
2

$$$$
Molecule_151
  Mrv2316 01072400032D          

 27 26  0  0  0  0            999 V2000
   -1.3184   -7.8375    0.0000 C   0  0  0  0  0  0  0  0  0  0  0  0
   -0.6039   -7.4250    0.0000 C   0  0  0  0  0  0  0  0  0  0  0  0
    0.1105   -7.8375    0.0000 Cl  0  0  0  0  0  0  0  0  0  0  0  0
   -0.6039   -6.6000    0.0000 C   0  0  0  0  0  0  0  0  0  0  0  0
   -1.3184   -6.1875    0.0000 O   0  0  0  0  0  0  0  0  0  0  0  0
    0.1105   -6.1875    0.0000 O   0  0  0  0  0  0  0  0  0  0  0  0
    0.1105   -5.3625    0.0000 C   0  0  0  0  0  0  0  0  0  0  0  0
    0.8250   -4.9500    0.0000 C   0  0  0  0  0  0  0  0  0  0  0  0
    0.8250   -4.1250    0.0000 C   0  0  0  0  0  0  0  0  0  0  0  0
    1.6500   -4.1250    0.0000 F   0  0  0  0  0  0  0  0  0  0  0  0
    0.0000   -4.1250    0.0000 F   0  0  0  0  0  0  0  0  0  0  0  0
    0.8250   -3.3000    0.0000 C   0  0  0  0  0  0  0  0  0  0  0  0
    1.6500   -3.3000    0.0000 F   0  0  0  0  0  0  0  0  0  0  0  0
    0.0000   -3.3000    0.0000 F   0  0  0  0  0  0  0  0  0  0  0  0
    0.8250   -2.4750    0.0000 C   0  0  0  0  0  0  0  0  0  0  0  0
    1.6500   -2.4750    0.0000 F   0  0  0  0  0  0  0  0  0  0  0  0
    0.0000   -2.4750    0.0000 F   0  0  0  0  0  0  0  0  0  0  0  0
    0.8250   -1.6500    0.0000 C   0  0  0  0  0  0  0  0  0  0  0  0
    1.6500   -1.6500    0.0000 F   0  0  0  0  0  0  0  0  0  0  0  0
    0.0000   -1.6500    0.0000 F   0  0  0  0  0  0  0  0  0  0  0  0
    0.8250   -0.8250    0.0000 C   0  0  0  0  0  0  0  0  0  0  0  0
    1.6500   -0.8250    0.0000 F   0  0  0  0  0  0  0  0  0  0  0  0
    0.0000   -0.8250    0.0000 F   0  0  0  0  0  0  0  0  0  0  0  0
    0.8250    0.0000    0.0000 C   0  0  0  0  0  0  0  0  0  0  0  0
    0.8250    0.8250    0.0000 F   0  0  0  0  0  0  0  0  0  0  0  0
    1.6500    0.0000    0.0000 F   0  0  0  0  0  0  0  0  0  0  0  0
    0.0000    0.0000    0.0000 F   0  0  0  0  0  0  0  0  0  0  0  0
  1  2  2  0  0  0  0
  2  3  1  0  0  0  0
  2  4  1  0  0  0  0
  4  5  2  0  0  0  0
  4  6  1  0  0  0  0
  6  7  1  0  0  0  0
  7  8  1  0  0  0  0
  8  9  1  0  0  0  0
  9 10  1  0  0  0  0
  9 11  1  0  0  0  0
  9 12  1  0  0  0  0
 12 13  1  0  0  0  0
 12 14  1  0  0  0  0
 12 15  1  0  0  0  0
 15 16  1  0  0  0  0
 15 17  1  0  0  0  0
 15 18  1  0  0  0  0
 18 19  1  0  0  0  0
 18 20  1  0  0  0  0
 18 21  1  0  0  0  0
 21 22  1  0  0  0  0
 21 23  1  0  0  0  0
 21 24  1  0  0  0  0
 24 25  1  0  0  0  0
 24 26  1  0  0  0  0
 24 27  1  0  0  0  0
M  END
> <RowID>
151

> <Original_SMILES>
C=C(Cl)C(=O)OCCC(F)(F)C(F)(F)C(F)(F)C(F)(F)C(F)(F)C(F)(F)F

> <Canonical_QSARr>
C=C(Cl)C(=O)OCCC(F)(F)C(F)(F)C(F)(F)C(F)(F)C(F)(F)C(F)(F)F

> <InChI_Code_QSARr>
InChI=1S/C11H6ClF13O2/c1-4(12)5(26)27-3-2-6(13,14)7(15,16)8(17,18)9(19,20)10(21,22)11(23,24)25/h1-3H2

> <InChI Key_QSARr>
HIRPFUWZIZCTAN-UHFFFAOYSA-N

> <Salt_Solvent>


> <Salt_Solvent_ID>
0

> <Number of connected components>
1

$$$$
Molecule_152
  Mrv2316 01072400032D          

 16 16  0  0  0  0            999 V2000
    0.2357   -1.9579    0.0000 C   0  0  0  0  0  0  0  0  0  0  0  0
    0.9502   -1.5454    0.0000 C   0  0  0  0  0  0  0  0  0  0  0  0
    1.6647   -1.9579    0.0000 C   0  0  0  0  0  0  0  0  0  0  0  0
    2.3792   -1.5454    0.0000 C   0  0  0  0  0  0  0  0  0  0  0  0
    3.0936   -1.9579    0.0000 C   0  0  0  0  0  0  0  0  0  0  0  0
    3.8081   -1.5454    0.0000 C   0  0  0  0  0  0  0  0  0  0  0  0
    4.5618   -1.8809    0.0000 C   0  0  0  0  0  0  0  0  0  0  0  0
    4.7333   -2.6879    0.0000 C   0  0  0  0  0  0  0  0  0  0  0  0
    5.5179   -2.9429    0.0000 C   0  0  0  0  0  0  0  0  0  0  0  0
    6.1310   -2.3908    0.0000 O   0  0  0  0  0  0  0  0  0  0  0  0
    5.6894   -3.7498    0.0000 O   0  0  0  0  0  0  0  0  0  0  0  0
    6.4741   -4.0048    0.0000 C   0  0  0  0  0  0  0  0  0  0  0  0
    5.1138   -1.2679    0.0000 C   0  0  0  0  0  0  0  0  0  0  0  0
    4.7013   -0.5534    0.0000 C   0  0  0  0  0  0  0  0  0  0  0  0
    3.8943   -0.7249    0.0000 C   0  0  0  0  0  0  0  0  0  0  0  0
    3.2812   -0.1729    0.0000 O   0  0  0  0  0  0  0  0  0  0  0  0
  1  2  1  0  0  0  0
  2  3  1  0  0  0  0
  3  4  1  0  0  0  0
  4  5  1  0  0  0  0
  5  6  1  0  0  0  0
  7  6  2  0  0  0  0
  7  8  1  0  0  0  0
  8  9  1  0  0  0  0
  9 10  2  0  0  0  0
  9 11  1  0  0  0  0
 11 12  1  0  0  0  0
 13  7  1  0  0  0  0
 14 13  1  0  0  0  0
 15 14  1  0  0  0  0
  6 15  1  0  0  0  0
 15 16  2  0  0  0  0
M  END
> <RowID>
152

> <Original_SMILES>
CCCCCC1=C(CCC1=O)CC(=O)OC

> <Canonical_QSARr>
CCCCCC1=C(CCC1=O)CC(=O)OC

> <InChI_Code_QSARr>
InChI=1S/C13H20O3/c1-3-4-5-6-11-10(7-8-12(11)14)9-13(15)16-2/h3-9H2,1-2H3

> <InChI Key_QSARr>
GJYFXPRHTPSOMM-UHFFFAOYSA-N

> <Salt_Solvent>


> <Salt_Solvent_ID>
0

> <Number of connected components>
1

$$$$
Molecule_153
  Mrv2316 01072400032D          

 16 17  0  0  0  0            999 V2000
    1.5395   -1.2375    0.0000 C   0  0  0  0  0  0  0  0  0  0  0  0
    0.7145   -1.2375    0.0000 C   0  0  0  0  0  0  0  0  0  0  0  0
   -0.1105   -1.2375    0.0000 C   0  0  0  0  0  0  0  0  0  0  0  0
    0.7145   -2.0625    0.0000 C   0  0  0  0  0  0  0  0  0  0  0  0
    0.0000   -2.4750    0.0000 C   0  0  0  0  0  0  0  0  0  0  0  0
    0.0000   -3.3000    0.0000 C   0  0  0  0  0  0  0  0  0  0  0  0
    0.7145   -3.7125    0.0000 C   0  0  0  0  0  0  0  0  0  0  0  0
    1.4289   -3.3000    0.0000 C   0  0  0  0  0  0  0  0  0  0  0  0
    1.4289   -2.4750    0.0000 C   0  0  0  0  0  0  0  0  0  0  0  0
    0.7145   -0.4125    0.0000 C   0  0  0  0  0  0  0  0  0  0  0  0
    1.4289    0.0000    0.0000 C   0  0  0  0  0  0  0  0  0  0  0  0
    1.4289    0.8250    0.0000 C   0  0  0  0  0  0  0  0  0  0  0  0
    0.7145    1.2375    0.0000 C   0  0  0  0  0  0  0  0  0  0  0  0
    0.7145    2.0625    0.0000 O   0  0  0  0  0  0  0  0  0  0  0  0
    0.0000    0.8250    0.0000 C   0  0  0  0  0  0  0  0  0  0  0  0
    0.0000    0.0000    0.0000 C   0  0  0  0  0  0  0  0  0  0  0  0
  1  2  1  0  0  0  0
  2  3  1  0  0  0  0
  2  4  1  0  0  0  0
  5  4  1  0  0  0  0
  6  5  2  0  0  0  0
  7  6  1  0  0  0  0
  8  7  2  0  0  0  0
  9  8  1  0  0  0  0
  4  9  2  0  0  0  0
  2 10  1  0  0  0  0
 11 10  1  0  0  0  0
 12 11  2  0  0  0  0
 13 12  1  0  0  0  0
 13 14  1  0  0  0  0
 15 13  2  0  0  0  0
 16 15  1  0  0  0  0
 10 16  2  0  0  0  0
M  END
> <RowID>
153

> <Original_SMILES>
CC(C)(C1C=CC=CC=1)C1C=CC(O)=CC=1

> <Canonical_QSARr>
CC(C)(C1C=CC=CC=1)C1C=CC(O)=CC=1

> <InChI_Code_QSARr>
InChI=1S/C15H16O/c1-15(2,12-6-4-3-5-7-12)13-8-10-14(16)11-9-13/h3-11,16H,1-2H3

> <InChI Key_QSARr>
QBDSZLJBMIMQRS-UHFFFAOYSA-N

> <Salt_Solvent>


> <Salt_Solvent_ID>
0

> <Number of connected components>
1

$$$$
Molecule_154
  Mrv2316 01072400032D          

 21 22  0  0  0  0            999 V2000
   -1.4629   -8.2303    0.0000 C   0  0  0  0  0  0  0  0  0  0  0  0
   -1.4629   -7.4053    0.0000 C   0  0  0  0  0  0  0  0  0  0  0  0
   -0.7485   -6.9928    0.0000 C   0  0  0  0  0  0  0  0  0  0  0  0
   -0.7485   -6.1678    0.0000 C   0  0  0  0  0  0  0  0  0  0  0  0
   -1.4629   -5.7553    0.0000 C   0  0  0  0  0  0  0  0  0  0  0  0
   -1.4629   -4.9303    0.0000 S   0  0  0  0  0  0  0  0  0  0  0  0
   -0.6379   -4.9303    0.0000 O   0  0  0  0  0  0  0  0  0  0  0  0
   -2.2879   -4.9303    0.0000 O   0  0  0  0  0  0  0  0  0  0  0  0
   -1.4629   -4.1053    0.0000 O   0  0  0  0  0  0  0  0  0  0  0  0
   -0.7485   -3.6928    0.0000 C   0  0  0  0  0  0  0  0  0  0  0  0
   -0.0340   -4.1053    0.0000 C   0  0  0  0  0  0  0  0  0  0  0  0
    0.6805   -3.6928    0.0000 C   0  0  0  0  0  0  0  0  0  0  0  0
    0.6805   -2.8678    0.0000 C   0  0  0  0  0  0  0  0  0  0  0  0
   -0.0340   -2.4553    0.0000 C   0  0  0  0  0  0  0  0  0  0  0  0
   -0.7485   -2.8678    0.0000 C   0  0  0  0  0  0  0  0  0  0  0  0
   -1.4629   -2.4553    0.0000 C   0  0  0  0  0  0  0  0  0  0  0  0
   -2.1774   -2.8678    0.0000 O   0  0  0  0  0  0  0  0  0  0  0  0
   -1.4629   -1.6303    0.0000 O   0  0  0  0  0  0  0  0  0  0  0  0
   -2.1774   -1.2178    0.0000 C   0  0  0  0  0  0  0  0  0  0  0  0
   -2.1774   -6.1678    0.0000 C   0  0  0  0  0  0  0  0  0  0  0  0
   -2.1774   -6.9928    0.0000 C   0  0  0  0  0  0  0  0  0  0  0  0
  1  2  1  0  0  0  0
  3  2  1  0  0  0  0
  4  3  2  0  0  0  0
  5  4  1  0  0  0  0
  5  6  1  0  0  0  0
  6  7  2  0  0  0  0
  6  8  2  0  0  0  0
  6  9  1  0  0  0  0
  9 10  1  0  0  0  0
 11 10  2  0  0  0  0
 12 11  1  0  0  0  0
 13 12  2  0  0  0  0
 14 13  1  0  0  0  0
 15 14  2  0  0  0  0
 10 15  1  0  0  0  0
 15 16  1  0  0  0  0
 16 17  2  0  0  0  0
 16 18  1  0  0  0  0
 18 19  1  0  0  0  0
 20  5  2  0  0  0  0
 21 20  1  0  0  0  0
  2 21  2  0  0  0  0
M  END
> <RowID>
154

> <Original_SMILES>
CC1C=CC(=CC=1)S(=O)(=O)OC1=CC=CC=C1C(=O)OC

> <Canonical_QSARr>
CC1C=CC(=CC=1)S(=O)(=O)OC1=CC=CC=C1C(=O)OC

> <InChI_Code_QSARr>
InChI=1S/C15H14O5S/c1-11-7-9-12(10-8-11)21(17,18)20-14-6-4-3-5-13(14)15(16)19-2/h3-10H,1-2H3

> <InChI Key_QSARr>
BHUYDZDOMFVDRA-UHFFFAOYSA-N

> <Salt_Solvent>


> <Salt_Solvent_ID>
0

> <Number of connected components>
1

$$$$
Molecule_155
  Mrv2316 01072400032D          

 26 25  0  0  0  0            999 V2000
   15.2329    8.7947    0.0000 C   0  0  0  0  0  0  0  0  0  0  0  0
   14.5184    8.3822    0.0000 C   0  0  0  0  0  0  0  0  0  0  0  0
   14.5184    7.5572    0.0000 C   0  0  0  0  0  0  0  0  0  0  0  0
   13.8039    7.1447    0.0000 C   0  0  0  0  0  0  0  0  0  0  0  0
   13.0894    7.5572    0.0000 C   0  0  0  0  0  0  0  0  0  0  0  0
   12.3750    7.1447    0.0000 C   0  0  0  0  0  0  0  0  0  0  0  0
   11.6605    7.5572    0.0000 C   0  0  0  0  0  0  0  0  0  0  0  0
   15.2329    7.1447    0.0000 C   0  0  0  0  0  0  0  0  0  0  0  0
   15.2329    6.3197    0.0000 O   0  0  0  0  0  0  0  0  0  0  0  0
   15.9473    7.5572    0.0000 O   0  0  0  0  0  0  0  0  0  0  0  0
   16.6618    7.1447    0.0000 C   0  0  0  0  0  0  0  0  0  0  0  0
   17.3763    7.5572    0.0000 C   0  0  0  0  0  0  0  0  0  0  0  0
   18.0907    7.1447    0.0000 C   0  0  0  0  0  0  0  0  0  0  0  0
   18.8052    7.5572    0.0000 C   0  0  0  0  0  0  0  0  0  0  0  0
   19.5197    7.1447    0.0000 C   0  0  0  0  0  0  0  0  0  0  0  0
   20.2342    7.5572    0.0000 C   0  0  0  0  0  0  0  0  0  0  0  0
   20.9486    7.1447    0.0000 C   0  0  0  0  0  0  0  0  0  0  0  0
   21.6631    7.5572    0.0000 C   0  0  0  0  0  0  0  0  0  0  0  0
   22.3776    7.1447    0.0000 C   0  0  0  0  0  0  0  0  0  0  0  0
   23.0920    7.5572    0.0000 C   0  0  0  0  0  0  0  0  0  0  0  0
   23.8065    7.1447    0.0000 C   0  0  0  0  0  0  0  0  0  0  0  0
   24.5210    7.5572    0.0000 C   0  0  0  0  0  0  0  0  0  0  0  0
   25.2355    7.1447    0.0000 C   0  0  0  0  0  0  0  0  0  0  0  0
   25.9499    7.5572    0.0000 C   0  0  0  0  0  0  0  0  0  0  0  0
   26.6644    7.1447    0.0000 C   0  0  0  0  0  0  0  0  0  0  0  0
   27.3789    7.5572    0.0000 C   0  0  0  0  0  0  0  0  0  0  0  0
  1  2  1  0  0  0  0
  2  3  1  0  0  0  0
  3  4  1  0  0  0  0
  4  5  1  0  0  0  0
  5  6  1  0  0  0  0
  6  7  1  0  0  0  0
  3  8  1  0  0  0  0
  8  9  2  0  0  0  0
  8 10  1  0  0  0  0
 10 11  1  0  0  0  0
 11 12  1  0  0  0  0
 12 13  1  0  0  0  0
 13 14  1  0  0  0  0
 14 15  1  0  0  0  0
 15 16  1  0  0  0  0
 16 17  1  0  0  0  0
 17 18  1  0  0  0  0
 18 19  1  0  0  0  0
 19 20  1  0  0  0  0
 20 21  1  0  0  0  0
 21 22  1  0  0  0  0
 22 23  1  0  0  0  0
 23 24  1  0  0  0  0
 24 25  1  0  0  0  0
 25 26  1  0  0  0  0
M  END
> <RowID>
155

> <Original_SMILES>
CCC(CCCC)C(=O)OCCCCCCCCCCCCCCCC

> <Canonical_QSARr>
CCC(CCCC)C(=O)OCCCCCCCCCCCCCCCC

> <InChI_Code_QSARr>
InChI=1S/C24H48O2/c1-4-7-9-10-11-12-13-14-15-16-17-18-19-20-22-26-24(25)23(6-3)21-8-5-2/h23H,4-22H2,1-3H3

> <InChI Key_QSARr>
XJNUECKWDBNFJV-UHFFFAOYSA-N

> <Salt_Solvent>


> <Salt_Solvent_ID>
0

> <Number of connected components>
1

$$$$
Molecule_156
  Mrv2316 01072400032D          

 49 54  0  0  0  0            999 V2000
   -4.7586   -0.7145    0.0000 C   0  0  0  0  0  0  0  0  0  0  0  0
   -3.9336   -0.7145    0.0000 C   0  0  0  0  0  0  0  0  0  0  0  0
   -3.1086   -0.7145    0.0000 C   0  0  0  0  0  0  0  0  0  0  0  0
   -3.9336    0.1105    0.0000 C   0  0  0  0  0  0  0  0  0  0  0  0
   -3.2191    0.5230    0.0000 C   0  0  0  0  0  0  0  0  0  0  0  0
   -3.2191    1.3480    0.0000 C   0  0  0  0  0  0  0  0  0  0  0  0
   -3.9336    1.7605    0.0000 C   0  0  0  0  0  0  0  0  0  0  0  0
   -3.9336    2.5855    0.0000 O   0  0  0  0  0  0  0  0  0  0  0  0
   -4.6480    2.9980    0.0000 P   0  0  0  0  0  0  0  0  0  0  0  0
   -4.2355    3.7125    0.0000 O   0  0  0  0  0  0  0  0  0  0  0  0
   -5.3625    3.4105    0.0000 O   0  0  0  0  0  0  0  0  0  0  0  0
   -5.3625    4.2355    0.0000 C   0  0  0  0  0  0  0  0  0  0  0  0
   -4.6480    4.6480    0.0000 C   0  0  0  0  0  0  0  0  0  0  0  0
   -4.6480    5.4730    0.0000 C   0  0  0  0  0  0  0  0  0  0  0  0
   -5.3625    5.8855    0.0000 C   0  0  0  0  0  0  0  0  0  0  0  0
   -6.0770    5.4730    0.0000 C   0  0  0  0  0  0  0  0  0  0  0  0
   -6.0770    4.6480    0.0000 C   0  0  0  0  0  0  0  0  0  0  0  0
   -5.0605    2.2835    0.0000 O   0  0  0  0  0  0  0  0  0  0  0  0
   -5.8855    2.2835    0.0000 C   0  0  0  0  0  0  0  0  0  0  0  0
   -6.2980    2.9980    0.0000 C   0  0  0  0  0  0  0  0  0  0  0  0
   -7.1230    2.9980    0.0000 C   0  0  0  0  0  0  0  0  0  0  0  0
   -7.5355    2.2835    0.0000 C   0  0  0  0  0  0  0  0  0  0  0  0
   -7.1230    1.5691    0.0000 C   0  0  0  0  0  0  0  0  0  0  0  0
   -6.2980    1.5691    0.0000 C   0  0  0  0  0  0  0  0  0  0  0  0
   -4.6480    1.3480    0.0000 C   0  0  0  0  0  0  0  0  0  0  0  0
   -4.6480    0.5230    0.0000 C   0  0  0  0  0  0  0  0  0  0  0  0
   -3.9336   -1.5395    0.0000 C   0  0  0  0  0  0  0  0  0  0  0  0
   -4.6480   -1.9520    0.0000 C   0  0  0  0  0  0  0  0  0  0  0  0
   -4.6480   -2.7770    0.0000 C   0  0  0  0  0  0  0  0  0  0  0  0
   -3.9336   -3.1895    0.0000 C   0  0  0  0  0  0  0  0  0  0  0  0
   -3.9336   -4.0145    0.0000 O   0  0  0  0  0  0  0  0  0  0  0  0
   -4.6480   -4.4270    0.0000 P   0  0  0  0  0  0  0  0  0  0  0  0
   -5.0605   -3.7125    0.0000 O   0  0  0  0  0  0  0  0  0  0  0  0
   -5.3625   -4.8395    0.0000 O   0  0  0  0  0  0  0  0  0  0  0  0
   -6.0770   -4.4270    0.0000 C   0  0  0  0  0  0  0  0  0  0  0  0
   -6.0770   -3.6020    0.0000 C   0  0  0  0  0  0  0  0  0  0  0  0
   -6.7914   -3.1895    0.0000 C   0  0  0  0  0  0  0  0  0  0  0  0
   -7.5059   -3.6020    0.0000 C   0  0  0  0  0  0  0  0  0  0  0  0
   -7.5059   -4.4270    0.0000 C   0  0  0  0  0  0  0  0  0  0  0  0
   -6.7914   -4.8395    0.0000 C   0  0  0  0  0  0  0  0  0  0  0  0
   -4.2355   -5.1415    0.0000 O   0  0  0  0  0  0  0  0  0  0  0  0
   -4.6480   -5.8559    0.0000 C   0  0  0  0  0  0  0  0  0  0  0  0
   -5.4730   -5.8559    0.0000 C   0  0  0  0  0  0  0  0  0  0  0  0
   -5.8855   -6.5704    0.0000 C   0  0  0  0  0  0  0  0  0  0  0  0
   -5.4730   -7.2849    0.0000 C   0  0  0  0  0  0  0  0  0  0  0  0
   -4.6480   -7.2849    0.0000 C   0  0  0  0  0  0  0  0  0  0  0  0
   -4.2355   -6.5704    0.0000 C   0  0  0  0  0  0  0  0  0  0  0  0
   -3.2191   -2.7770    0.0000 C   0  0  0  0  0  0  0  0  0  0  0  0
   -3.2191   -1.9520    0.0000 C   0  0  0  0  0  0  0  0  0  0  0  0
  1  2  1  0  0  0  0
  2  3  1  0  0  0  0
  2  4  1  0  0  0  0
  5  4  1  0  0  0  0
  6  5  2  0  0  0  0
  7  6  1  0  0  0  0
  7  8  1  0  0  0  0
  8  9  1  0  0  0  0
  9 10  2  0  0  0  0
  9 11  1  0  0  0  0
 11 12  1  0  0  0  0
 13 12  1  0  0  0  0
 14 13  2  0  0  0  0
 15 14  1  0  0  0  0
 16 15  2  0  0  0  0
 17 16  1  0  0  0  0
 12 17  2  0  0  0  0
  9 18  1  0  0  0  0
 18 19  1  0  0  0  0
 20 19  1  0  0  0  0
 21 20  2  0  0  0  0
 22 21  1  0  0  0  0
 23 22  2  0  0  0  0
 24 23  1  0  0  0  0
 19 24  2  0  0  0  0
 25  7  2  0  0  0  0
 26 25  1  0  0  0  0
  4 26  2  0  0  0  0
  2 27  1  0  0  0  0
 28 27  1  0  0  0  0
 29 28  2  0  0  0  0
 30 29  1  0  0  0  0
 30 31  1  0  0  0  0
 31 32  1  0  0  0  0
 32 33  2  0  0  0  0
 32 34  1  0  0  0  0
 34 35  1  0  0  0  0
 36 35  1  0  0  0  0
 37 36  2  0  0  0  0
 38 37  1  0  0  0  0
 39 38  2  0  0  0  0
 40 39  1  0  0  0  0
 35 40  2  0  0  0  0
 32 41  1  0  0  0  0
 41 42  1  0  0  0  0
 43 42  1  0  0  0  0
 44 43  2  0  0  0  0
 45 44  1  0  0  0  0
 46 45  2  0  0  0  0
 47 46  1  0  0  0  0
 42 47  2  0  0  0  0
 48 30  2  0  0  0  0
 49 48  1  0  0  0  0
 27 49  2  0  0  0  0
M  END
> <RowID>
156

> <Original_SMILES>
CC(C)(C1C=CC(=CC=1)OP(=O)(OC1C=CC=CC=1)OC1C=CC=CC=1)C1C=CC(=CC=1)OP(=O)(OC1C=CC=CC=1)OC1C=CC=CC=1

> <Canonical_QSARr>
CC(C)(C1C=CC(=CC=1)OP(=O)(OC1C=CC=CC=1)OC1C=CC=CC=1)C1C=CC(=CC=1)OP(=O)(OC1C=CC=CC=1)OC1C=CC=CC=1

> <InChI_Code_QSARr>
InChI=1S/C39H34O8P2/c1-39(2,31-23-27-37(28-24-31)46-48(40,42-33-15-7-3-8-16-33)43-34-17-9-4-10-18-34)32-25-29-38(30-26-32)47-49(41,44-35-19-11-5-12-20-35)45-36-21-13-6-14-22-36/h3-30H,1-2H3

> <InChI Key_QSARr>
BQPNUOYXSVUVMY-UHFFFAOYSA-N

> <Salt_Solvent>


> <Salt_Solvent_ID>
0

> <Number of connected components>
1

$$$$
Molecule_157
  Mrv2316 01072400032D          

 20 21  0  0  0  0            999 V2000
    0.7145   -9.0750    0.0000 O   0  5  0  0  0  0  0  0  0  0  0  0
    1.4289   -8.6625    0.0000 N   0  3  0  0  0  0  0  0  0  0  0  0
    2.1434   -9.0750    0.0000 O   0  0  0  0  0  0  0  0  0  0  0  0
    1.4289   -7.8375    0.0000 C   0  0  0  0  0  0  0  0  0  0  0  0
    2.1434   -7.4250    0.0000 C   0  0  0  0  0  0  0  0  0  0  0  0
    2.1434   -6.6000    0.0000 C   0  0  0  0  0  0  0  0  0  0  0  0
    1.4289   -6.1875    0.0000 C   0  0  0  0  0  0  0  0  0  0  0  0
    1.4289   -5.3625    0.0000 C   0  0  0  0  0  0  0  0  0  0  0  0
    2.1434   -4.9500    0.0000 C   0  0  0  0  0  0  0  0  0  0  0  0
    2.1434   -4.1250    0.0000 C   0  0  0  0  0  0  0  0  0  0  0  0
    2.8579   -3.7125    0.0000 C   0  0  0  0  0  0  0  0  0  0  0  0
    2.8579   -2.8875    0.0000 C   0  0  0  0  0  0  0  0  0  0  0  0
    2.1434   -2.4750    0.0000 C   0  0  0  0  0  0  0  0  0  0  0  0
    2.1434   -1.6500    0.0000 N   0  3  0  0  0  0  0  0  0  0  0  0
    1.4289   -1.2375    0.0000 O   0  5  0  0  0  0  0  0  0  0  0  0
    2.8579   -1.2375    0.0000 O   0  0  0  0  0  0  0  0  0  0  0  0
    1.4289   -2.8875    0.0000 C   0  0  0  0  0  0  0  0  0  0  0  0
    1.4289   -3.7125    0.0000 C   0  0  0  0  0  0  0  0  0  0  0  0
    0.7145   -6.6000    0.0000 C   0  0  0  0  0  0  0  0  0  0  0  0
    0.7145   -7.4250    0.0000 C   0  0  0  0  0  0  0  0  0  0  0  0
  1  2  1  0  0  0  0
  2  3  2  0  0  0  0
  2  4  1  0  0  0  0
  5  4  1  0  0  0  0
  6  5  2  0  0  0  0
  7  6  1  0  0  0  0
  7  8  1  0  0  0  0
  8  9  1  0  0  0  0
  9 10  1  0  0  0  0
 11 10  1  0  0  0  0
 12 11  2  0  0  0  0
 13 12  1  0  0  0  0
 13 14  1  0  0  0  0
 14 15  1  0  0  0  0
 14 16  2  0  0  0  0
 17 13  2  0  0  0  0
 18 17  1  0  0  0  0
 10 18  2  0  0  0  0
 19  7  2  0  0  0  0
 20 19  1  0  0  0  0
  4 20  2  0  0  0  0
M  CHG  4   1  -1   2   1  14   1  15  -1
M  END
> <RowID>
157

> <Original_SMILES>
[O-][N+](=O)C1C=CC(CCC2C=CC(=CC=2)[N+]([O-])=O)=CC=1

> <Canonical_QSARr>
[O-][N+](=O)C1C=CC(CCC2C=CC(=CC=2)[N+]([O-])=O)=CC=1

> <InChI_Code_QSARr>
InChI=1S/C14H12N2O4/c17-15(18)13-7-3-11(4-8-13)1-2-12-5-9-14(10-6-12)16(19)20/h3-10H,1-2H2

> <InChI Key_QSARr>
BSNKHEKTRWNNAC-UHFFFAOYSA-N

> <Salt_Solvent>


> <Salt_Solvent_ID>
0

> <Number of connected components>
1

$$$$
Molecule_158
  Mrv2316 01072400032D          

  9  8  0  0  0  0            999 V2000
    0.4125    2.1434    0.0000 O   0  0  0  0  0  0  0  0  0  0  0  0
    0.8250    2.8579    0.0000 O   0  0  0  0  0  0  0  0  0  0  0  0
    0.8250    1.4289    0.0000 P   0  0  0  0  0  0  0  0  0  0  0  0
    0.1105    1.0164    0.0000 O   0  0  0  0  0  0  0  0  0  0  0  0
    1.5395    1.8414    0.0000 O   0  0  0  0  0  0  0  0  0  0  0  0
    1.2375    0.7145    0.0000 C   0  0  0  0  0  0  0  0  0  0  0  0
    0.8250   -0.0000    0.0000 C   0  0  0  0  0  0  0  0  0  0  0  0
    1.2375   -0.7145    0.0000 O   0  0  0  0  0  0  0  0  0  0  0  0
    0.0000   -0.0000    0.0000 O   0  0  0  0  0  0  0  0  0  0  0  0
  1  2  1  0  0  0  0
  1  3  1  0  0  0  0
  3  4  1  0  0  0  0
  3  5  2  0  0  0  0
  3  6  1  0  0  0  0
  6  7  1  0  0  0  0
  7  8  1  0  0  0  0
  7  9  2  0  0  0  0
M  END
> <RowID>
158

> <Original_SMILES>
[Na+].[Na+].[Na+].[O-]OP([O-])(=O)CC([O-])=O

> <Canonical_QSARr>
OOP(O)(=O)CC(O)=O

> <InChI_Code_QSARr>
InChI=1S/C2H5O6P/c3-2(4)1-9(6,7)8-5/h5H,1H2,(H,3,4)(H,6,7)

> <InChI Key_QSARr>
IQEKRNXJPCBUAT-UHFFFAOYSA-N

> <Salt_Solvent>
[Na+]

> <Salt_Solvent_ID>
110

> <Number of connected components>
4

$$$$
Molecule_159
  Mrv2316 01072400032D          

 19 18  0  0  0  0            999 V2000
    5.9961    4.2868    0.0000 C   0  0  0  0  0  0  0  0  0  0  0  0
    6.7105    4.6993    0.0000 C   0  0  0  0  0  0  0  0  0  0  0  0
    7.4250    4.2868    0.0000 C   0  0  0  0  0  0  0  0  0  0  0  0
    8.1395    4.6993    0.0000 C   0  0  0  0  0  0  0  0  0  0  0  0
    8.8540    4.2868    0.0000 C   0  0  0  0  0  0  0  0  0  0  0  0
    9.5684    4.6993    0.0000 C   0  0  0  0  0  0  0  0  0  0  0  0
   10.2829    4.2868    0.0000 O   0  0  0  0  0  0  0  0  0  0  0  0
   10.9974    4.6993    0.0000 C   0  0  0  0  0  0  0  0  0  0  0  0
   11.7118    4.2868    0.0000 C   0  0  0  0  0  0  0  0  0  0  0  0
   12.4263    4.6993    0.0000 O   0  0  0  0  0  0  0  0  0  0  0  0
   13.1408    4.2868    0.0000 C   0  0  0  0  0  0  0  0  0  0  0  0
   13.8553    4.6993    0.0000 C   0  0  0  0  0  0  0  0  0  0  0  0
   14.5697    4.2868    0.0000 O   0  0  0  0  0  0  0  0  0  0  0  0
   15.2842    4.6993    0.0000 C   0  0  0  0  0  0  0  0  0  0  0  0
   15.2842    5.5243    0.0000 O   0  0  0  0  0  0  0  0  0  0  0  0
   15.9987    4.2868    0.0000 C   0  0  0  0  0  0  0  0  0  0  0  0
   16.7131    4.6993    0.0000 C   0  0  0  0  0  0  0  0  0  0  0  0
    8.8540    3.4618    0.0000 C   0  0  0  0  0  0  0  0  0  0  0  0
    9.5684    3.0493    0.0000 C   0  0  0  0  0  0  0  0  0  0  0  0
  1  2  1  0  0  0  0
  2  3  1  0  0  0  0
  3  4  1  0  0  0  0
  4  5  1  0  0  0  0
  5  6  1  0  0  0  0
  6  7  1  0  0  0  0
  7  8  1  0  0  0  0
  8  9  1  0  0  0  0
  9 10  1  0  0  0  0
 10 11  1  0  0  0  0
 11 12  1  0  0  0  0
 12 13  1  0  0  0  0
 13 14  1  0  0  0  0
 14 15  2  0  0  0  0
 14 16  1  0  0  0  0
 16 17  2  0  0  0  0
  5 18  1  0  0  0  0
 18 19  1  0  0  0  0
M  END
> <RowID>
159

> <Original_SMILES>
CCCCC(COCCOCCOC(=O)C=C)CC

> <Canonical_QSARr>
CCCCC(COCCOCCOC(=O)C=C)CC

> <InChI_Code_QSARr>
InChI=1S/C15H28O4/c1-4-7-8-14(5-2)13-18-10-9-17-11-12-19-15(16)6-3/h6,14H,3-5,7-13H2,1-2H3

> <InChI Key_QSARr>
XNMJQRPYVCIXGZ-UHFFFAOYSA-N

> <Salt_Solvent>


> <Salt_Solvent_ID>
0

> <Number of connected components>
1

$$$$
Molecule_160
  Mrv2316 01072400032D          

 20 19  0  0  0  0            999 V2000
    2.2836    2.1434    0.0000 O   0  0  0  0  0  0  0  0  0  0  0  0
    2.9980    2.5559    0.0000 C   0  0  0  0  0  0  0  0  0  0  0  0
    2.9980    3.3809    0.0000 O   0  0  0  0  0  0  0  0  0  0  0  0
    3.7125    2.1434    0.0000 C   0  0  0  0  0  0  0  0  0  0  0  0
    4.4270    2.5559    0.0000 C   0  0  0  0  0  0  0  0  0  0  0  0
    5.1415    2.1434    0.0000 C   0  0  0  0  0  0  0  0  0  0  0  0
    5.8559    2.5559    0.0000 C   0  0  0  0  0  0  0  0  0  0  0  0
    6.5704    2.1434    0.0000 C   0  0  0  0  0  0  0  0  0  0  0  0
    7.2849    2.5559    0.0000 C   0  0  0  0  0  0  0  0  0  0  0  0
    7.9993    2.1434    0.0000 C   0  0  0  0  0  0  0  0  0  0  0  0
    8.7138    2.5559    0.0000 C   0  0  0  0  0  0  0  0  0  0  0  0
    9.4283    2.1434    0.0000 C   0  0  0  0  0  0  0  0  0  0  0  0
   10.1427    2.5559    0.0000 C   0  0  0  0  0  0  0  0  0  0  0  0
   10.1427    3.3809    0.0000 C   0  0  0  0  0  0  0  0  0  0  0  0
   10.8572    3.7934    0.0000 C   0  0  0  0  0  0  0  0  0  0  0  0
   10.8572    4.6184    0.0000 C   0  0  0  0  0  0  0  0  0  0  0  0
   11.5717    5.0309    0.0000 C   0  0  0  0  0  0  0  0  0  0  0  0
   11.5717    5.8559    0.0000 C   0  0  0  0  0  0  0  0  0  0  0  0
   12.2862    6.2684    0.0000 C   0  0  0  0  0  0  0  0  0  0  0  0
   12.2862    7.0934    0.0000 C   0  0  0  0  0  0  0  0  0  0  0  0
  1  2  1  0  0  0  0
  2  3  2  0  0  0  0
  2  4  1  0  0  0  0
  4  5  1  0  0  0  0
  5  6  1  0  0  0  0
  6  7  1  0  0  0  0
  7  8  1  0  0  0  0
  8  9  1  0  0  0  0
  9 10  1  0  0  0  0
 11 10  1  4  0  0  0
 11 12  2  0  0  0  0
 12 13  1  0  0  0  0
 13 14  1  0  0  0  0
 14 15  1  0  0  0  0
 15 16  1  0  0  0  0
 16 17  1  0  0  0  0
 17 18  1  0  0  0  0
 18 19  1  0  0  0  0
 19 20  1  0  0  0  0
M  END
> <RowID>
160

> <Original_SMILES>
[Ca+2].CCCCCCCCC=CCCCCCCCC([O-])=O.CCCCCCCCC=CCCCCCCCC([O-])=O

> <Canonical_QSARr>
CCCCCCCCC=CCCCCCCCC(O)=O

> <InChI_Code_QSARr>
InChI=1S/C18H34O2/c1-2-3-4-5-6-7-8-9-10-11-12-13-14-15-16-17-18(19)20/h9-10H,2-8,11-17H2,1H3,(H,19,20)

> <InChI Key_QSARr>
ZQPPMHVWECSIRJ-UHFFFAOYSA-N

> <Salt_Solvent>
[Ca+2]

> <Salt_Solvent_ID>
200

> <Number of connected components>
3

$$$$
Molecule_161
  Mrv2316 01072400032D          

 30 29  0  0  0  0            999 V2000
    5.7750    5.1118    0.0000 C   0  0  0  0  0  0  0  0  0  0  0  0
    5.7750    4.2868    0.0000 C   0  0  0  0  0  0  0  0  0  0  0  0
    5.7750    3.4618    0.0000 C   0  0  0  0  0  0  0  0  0  0  0  0
    6.6000    4.2868    0.0000 C   0  0  0  0  0  0  0  0  0  0  0  0
    7.0125    5.0013    0.0000 C   0  0  0  0  0  0  0  0  0  0  0  0
    7.8375    5.0013    0.0000 C   0  0  0  0  0  0  0  0  0  0  0  0
    7.8375    5.8263    0.0000 C   0  0  0  0  0  0  0  0  0  0  0  0
    7.8375    4.1763    0.0000 C   0  0  0  0  0  0  0  0  0  0  0  0
    8.6625    5.0013    0.0000 O   0  0  0  0  0  0  0  0  0  0  0  0
    9.0750    5.7158    0.0000 O   0  0  0  0  0  0  0  0  0  0  0  0
    9.9000    5.7158    0.0000 C   0  0  0  0  0  0  0  0  0  0  0  0
   10.3125    5.0013    0.0000 O   0  0  0  0  0  0  0  0  0  0  0  0
   10.3125    6.4302    0.0000 C   0  0  0  0  0  0  0  0  0  0  0  0
   11.1375    6.4302    0.0000 C   0  0  0  0  0  0  0  0  0  0  0  0
   11.5500    7.1447    0.0000 C   0  0  0  0  0  0  0  0  0  0  0  0
   12.3750    7.1447    0.0000 C   0  0  0  0  0  0  0  0  0  0  0  0
   12.7875    7.8592    0.0000 C   0  0  0  0  0  0  0  0  0  0  0  0
    9.9000    7.1447    0.0000 C   0  0  0  0  0  0  0  0  0  0  0  0
   10.3125    7.8592    0.0000 C   0  0  0  0  0  0  0  0  0  0  0  0
    4.9500    4.2868    0.0000 O   0  0  0  0  0  0  0  0  0  0  0  0
    4.5375    3.5724    0.0000 O   0  0  0  0  0  0  0  0  0  0  0  0
    3.7125    3.5724    0.0000 C   0  0  0  0  0  0  0  0  0  0  0  0
    3.3000    4.2868    0.0000 O   0  0  0  0  0  0  0  0  0  0  0  0
    3.3000    2.8579    0.0000 C   0  0  0  0  0  0  0  0  0  0  0  0
    2.4750    2.8579    0.0000 C   0  0  0  0  0  0  0  0  0  0  0  0
    2.0625    2.1434    0.0000 C   0  0  0  0  0  0  0  0  0  0  0  0
    1.2375    2.1434    0.0000 C   0  0  0  0  0  0  0  0  0  0  0  0
    0.8250    1.4289    0.0000 C   0  0  0  0  0  0  0  0  0  0  0  0
    3.7125    2.1434    0.0000 C   0  0  0  0  0  0  0  0  0  0  0  0
    3.3000    1.4289    0.0000 C   0  0  0  0  0  0  0  0  0  0  0  0
  1  2  1  0  0  0  0
  2  3  1  0  0  0  0
  2  4  1  0  0  0  0
  4  5  1  0  0  0  0
  5  6  1  0  0  0  0
  6  7  1  0  0  0  0
  6  8  1  0  0  0  0
  6  9  1  0  0  0  0
  9 10  1  0  0  0  0
 10 11  1  0  0  0  0
 11 12  2  0  0  0  0
 11 13  1  0  0  0  0
 13 14  1  0  0  0  0
 14 15  1  0  0  0  0
 15 16  1  0  0  0  0
 16 17  1  0  0  0  0
 13 18  1  0  0  0  0
 18 19  1  0  0  0  0
  2 20  1  0  0  0  0
 20 21  1  0  0  0  0
 21 22  1  0  0  0  0
 22 23  2  0  0  0  0
 22 24  1  0  0  0  0
 24 25  1  0  0  0  0
 25 26  1  0  0  0  0
 26 27  1  0  0  0  0
 27 28  1  0  0  0  0
 24 29  1  0  0  0  0
 29 30  1  0  0  0  0
M  END
> <RowID>
161

> <Original_SMILES>
CC(C)(CCC(C)(C)OOC(=O)C(CCCC)CC)OOC(=O)C(CCCC)CC

> <Canonical_QSARr>
CC(C)(CCC(C)(C)OOC(=O)C(CCCC)CC)OOC(=O)C(CCCC)CC

> <InChI_Code_QSARr>
InChI=1S/C24H46O6/c1-9-13-15-19(11-3)21(25)27-29-23(5,6)17-18-24(7,8)30-28-22(26)20(12-4)16-14-10-2/h19-20H,9-18H2,1-8H3

> <InChI Key_QSARr>
JUIBLDFFVYKUAC-UHFFFAOYSA-N

> <Salt_Solvent>


> <Salt_Solvent_ID>
0

> <Number of connected components>
1

$$$$
Molecule_162
  Mrv2316 01072400032D          

 21 21  0  0  0  0            999 V2000
    2.1774   -3.1821    0.0000 O   0  5  0  0  0  0  0  0  0  0  0  0
    2.1774   -2.3571    0.0000 N   0  3  0  0  0  0  0  0  0  0  0  0
    2.8919   -1.9446    0.0000 O   0  0  0  0  0  0  0  0  0  0  0  0
    1.4630   -1.9446    0.0000 C   0  0  0  0  0  0  0  0  0  0  0  0
    1.4630   -1.1196    0.0000 C   0  0  0  0  0  0  0  0  0  0  0  0
    0.7485   -0.7071    0.0000 C   0  0  0  0  0  0  0  0  0  0  0  0
    0.7485    0.1179    0.0000 Cl  0  0  0  0  0  0  0  0  0  0  0  0
    0.0340   -1.1196    0.0000 C   0  0  0  0  0  0  0  0  0  0  0  0
   -0.6805   -0.7071    0.0000 O   0  0  0  0  0  0  0  0  0  0  0  0
   -0.6805    0.1179    0.0000 C   0  0  0  0  0  0  0  0  0  0  0  0
    0.1445    0.1179    0.0000 F   0  0  0  0  0  0  0  0  0  0  0  0
   -1.5055    0.1179    0.0000 F   0  0  0  0  0  0  0  0  0  0  0  0
   -0.6805    0.9429    0.0000 C   0  0  0  0  0  0  0  0  0  0  0  0
    0.0340    1.3554    0.0000 F   0  0  0  0  0  0  0  0  0  0  0  0
   -1.3949    1.3554    0.0000 C   0  0  0  0  0  0  0  0  0  0  0  0
   -2.1094    1.7679    0.0000 F   0  0  0  0  0  0  0  0  0  0  0  0
   -0.9824    2.0698    0.0000 F   0  0  0  0  0  0  0  0  0  0  0  0
   -1.8074    0.6409    0.0000 F   0  0  0  0  0  0  0  0  0  0  0  0
    0.0340   -1.9446    0.0000 C   0  0  0  0  0  0  0  0  0  0  0  0
    0.7485   -2.3571    0.0000 C   0  0  0  0  0  0  0  0  0  0  0  0
    0.7485   -3.1821    0.0000 Cl  0  0  0  0  0  0  0  0  0  0  0  0
  1  2  1  0  0  0  0
  2  3  2  0  0  0  0
  2  4  1  0  0  0  0
  5  4  2  0  0  0  0
  6  5  1  0  0  0  0
  6  7  1  0  0  0  0
  8  6  2  0  0  0  0
  8  9  1  0  0  0  0
  9 10  1  0  0  0  0
 10 11  1  0  0  0  0
 10 12  1  0  0  0  0
 10 13  1  0  0  0  0
 13 14  1  0  0  0  0
 13 15  1  0  0  0  0
 15 16  1  0  0  0  0
 15 17  1  0  0  0  0
 15 18  1  0  0  0  0
 19  8  1  0  0  0  0
 20 19  2  0  0  0  0
  4 20  1  0  0  0  0
 20 21  1  0  0  0  0
M  CHG  2   1  -1   2   1
M  END
> <RowID>
162

> <Original_SMILES>
[O-][N+](=O)C1=CC(Cl)=C(C=C1Cl)OC(F)(F)C(F)C(F)(F)F

> <Canonical_QSARr>
[O-][N+](=O)C1=CC(Cl)=C(C=C1Cl)OC(F)(F)C(F)C(F)(F)F

> <InChI_Code_QSARr>
InChI=1S/C9H3Cl2F6NO3/c10-3-2-6(4(11)1-5(3)18(19)20)21-9(16,17)7(12)8(13,14)15/h1-2,7H

> <InChI Key_QSARr>
WDTRKHSHZIJORU-UHFFFAOYSA-N

> <Salt_Solvent>


> <Salt_Solvent_ID>
0

> <Number of connected components>
1

$$$$
Molecule_163
  Mrv2316 01072400032D          

 14 14  0  0  0  0            999 V2000
    0.0000   -3.8893    0.0000 C   0  0  0  0  0  0  0  0  0  0  0  0
    0.7145   -3.4768    0.0000 C   0  0  0  0  0  0  0  0  0  0  0  0
    0.7145   -2.6518    0.0000 O   0  0  0  0  0  0  0  0  0  0  0  0
    1.4289   -3.8893    0.0000 C   0  0  0  0  0  0  0  0  0  0  0  0
    2.1434   -3.4768    0.0000 C   0  0  0  0  0  0  0  0  0  0  0  0
    2.1434   -2.6518    0.0000 O   0  0  0  0  0  0  0  0  0  0  0  0
    2.8579   -3.8893    0.0000 N   0  0  0  0  0  0  0  0  0  0  0  0
    3.5724   -3.4768    0.0000 C   0  0  0  0  0  0  0  0  0  0  0  0
    4.2868   -3.8893    0.0000 C   0  0  0  0  0  0  0  0  0  0  0  0
    5.0013   -3.4768    0.0000 C   0  0  0  0  0  0  0  0  0  0  0  0
    5.0013   -2.6518    0.0000 C   0  0  0  0  0  0  0  0  0  0  0  0
    4.2868   -2.2393    0.0000 C   0  0  0  0  0  0  0  0  0  0  0  0
    3.5724   -2.6518    0.0000 C   0  0  0  0  0  0  0  0  0  0  0  0
    2.8579   -2.2393    0.0000 C   0  0  0  0  0  0  0  0  0  0  0  0
  1  2  1  0  0  0  0
  2  3  2  0  0  0  0
  2  4  1  0  0  0  0
  4  5  1  0  0  0  0
  5  6  2  0  0  0  0
  5  7  1  0  0  0  0
  7  8  1  0  0  0  0
  9  8  1  0  0  0  0
 10  9  2  0  0  0  0
 11 10  1  0  0  0  0
 12 11  2  0  0  0  0
 13 12  1  0  0  0  0
  8 13  2  0  0  0  0
 13 14  1  0  0  0  0
M  END
> <RowID>
163

> <Original_SMILES>
CC(=O)CC(=O)NC1C=CC=CC=1C

> <Canonical_QSARr>
CC(=O)CC(=O)NC1C=CC=CC=1C

> <InChI_Code_QSARr>
InChI=1S/C11H13NO2/c1-8-5-3-4-6-10(8)12-11(14)7-9(2)13/h3-6H,7H2,1-2H3,(H,12,14)

> <InChI Key_QSARr>
TVZIWRMELPWPPR-UHFFFAOYSA-N

> <Salt_Solvent>


> <Salt_Solvent_ID>
0

> <Number of connected components>
1

$$$$
Molecule_164
  Mrv2316 01072400032D          

 20 20  0  0  0  0            999 V2000
   -1.1789    0.5156    0.0000 C   0  0  0  0  0  0  0  0  0  0  0  0
   -0.4644    0.9281    0.0000 C   0  0  0  0  0  0  0  0  0  0  0  0
    0.2501    0.5156    0.0000 C   0  0  0  0  0  0  0  0  0  0  0  0
    0.9645    0.9281    0.0000 C   0  0  0  0  0  0  0  0  0  0  0  0
    1.6790    0.5156    0.0000 O   0  0  0  0  0  0  0  0  0  0  0  0
    1.6790   -0.3094    0.0000 C   0  0  0  0  0  0  0  0  0  0  0  0
    2.3935   -0.7219    0.0000 O   0  0  0  0  0  0  0  0  0  0  0  0
    0.9645   -0.7219    0.0000 C   0  0  0  0  0  0  0  0  0  0  0  0
    0.2501   -0.3094    0.0000 C   0  0  0  0  0  0  0  0  0  0  0  0
   -0.4644   -0.7219    0.0000 C   0  0  0  0  0  0  0  0  0  0  0  0
   -0.4644   -1.5469    0.0000 C   0  0  0  0  0  0  0  0  0  0  0  0
    0.2501   -1.9594    0.0000 C   0  0  0  0  0  0  0  0  0  0  0  0
    0.9645   -1.5469    0.0000 C   0  0  0  0  0  0  0  0  0  0  0  0
    1.6790   -1.9594    0.0000 C   0  0  0  0  0  0  0  0  0  0  0  0
    1.6790   -2.7844    0.0000 O   0  0  0  0  0  0  0  0  0  0  0  0
    2.3935   -1.5469    0.0000 O   0  0  0  0  0  0  0  0  0  0  0  0
    3.1079   -1.9594    0.0000 C   0  0  0  0  0  0  0  0  0  0  0  0
    3.8224   -1.5469    0.0000 C   0  0  0  0  0  0  0  0  0  0  0  0
    4.5369   -1.9594    0.0000 C   0  0  0  0  0  0  0  0  0  0  0  0
    5.2514   -1.5469    0.0000 C   0  0  0  0  0  0  0  0  0  0  0  0
  1  2  1  0  0  0  0
  2  3  1  0  0  0  0
  3  4  1  0  0  0  0
  4  5  1  0  0  0  0
  5  6  1  0  0  0  0
  6  7  2  0  0  0  0
  6  8  1  0  0  0  0
  9  8  2  0  0  0  0
 10  9  1  0  0  0  0
 11 10  2  0  0  0  0
 12 11  1  0  0  0  0
 13 12  2  0  0  0  0
  8 13  1  0  0  0  0
 13 14  1  0  0  0  0
 14 15  2  0  0  0  0
 14 16  1  0  0  0  0
 16 17  1  0  0  0  0
 17 18  1  0  0  0  0
 18 19  1  0  0  0  0
 19 20  1  0  0  0  0
M  END
> <RowID>
164

> <Original_SMILES>
CCCCOC(=O)C1=CC=CC=C1C(=O)OCCCC

> <Canonical_QSARr>
CCCCOC(=O)C1=CC=CC=C1C(=O)OCCCC

> <InChI_Code_QSARr>
InChI=1S/C16H22O4/c1-3-5-11-19-15(17)13-9-7-8-10-14(13)16(18)20-12-6-4-2/h7-10H,3-6,11-12H2,1-2H3

> <InChI Key_QSARr>
DOIRQSBPFJWKBE-UHFFFAOYSA-N

> <Salt_Solvent>


> <Salt_Solvent_ID>
0

> <Number of connected components>
1

$$$$
Molecule_165
  Mrv2316 01072400032D          

 20 19  0  0  0  0            999 V2000
    5.3328   -2.5854    0.0000 O   0  0  0  0  0  0  0  0  0  0  0  0
    4.5226   -2.7413    0.0000 C   0  0  0  0  0  0  0  0  0  0  0  0
    4.2526   -3.5209    0.0000 O   0  0  0  0  0  0  0  0  0  0  0  0
    3.9825   -2.1177    0.0000 C   0  0  0  0  0  0  0  0  0  0  0  0
    4.2526   -1.3381    0.0000 N   0  0  0  0  0  0  0  0  0  0  0  0
    3.7125   -0.7145    0.0000 C   0  0  0  0  0  0  0  0  0  0  0  0
    2.9024   -0.8704    0.0000 C   0  0  0  0  0  0  0  0  0  0  0  0
    2.6323   -1.6499    0.0000 O   0  0  0  0  0  0  0  0  0  0  0  0
    2.3623   -0.2467    0.0000 O   0  0  0  0  0  0  0  0  0  0  0  0
    5.0627   -1.1822    0.0000 C   0  0  0  0  0  0  0  0  0  0  0  0
    5.3328   -0.4027    0.0000 C   0  0  0  0  0  0  0  0  0  0  0  0
    6.1429   -0.2467    0.0000 N   0  0  0  0  0  0  0  0  0  0  0  0
    6.4129    0.5328    0.0000 C   0  0  0  0  0  0  0  0  0  0  0  0
    5.8729    1.1564    0.0000 C   0  0  0  0  0  0  0  0  0  0  0  0
    6.1429    1.9360    0.0000 O   0  0  0  0  0  0  0  0  0  0  0  0
    5.0627    1.0005    0.0000 O   0  0  0  0  0  0  0  0  0  0  0  0
    6.6830   -0.8704    0.0000 C   0  0  0  0  0  0  0  0  0  0  0  0
    7.4931   -0.7145    0.0000 C   0  0  0  0  0  0  0  0  0  0  0  0
    7.7632    0.0651    0.0000 O   0  0  0  0  0  0  0  0  0  0  0  0
    8.0332   -1.3381    0.0000 O   0  0  0  0  0  0  0  0  0  0  0  0
  1  2  1  0  0  0  0
  2  3  2  0  0  0  0
  2  4  1  0  0  0  0
  4  5  1  0  0  0  0
  5  6  1  0  0  0  0
  6  7  1  0  0  0  0
  7  8  1  0  0  0  0
  7  9  2  0  0  0  0
  5 10  1  0  0  0  0
 10 11  1  0  0  0  0
 11 12  1  0  0  0  0
 12 13  1  0  0  0  0
 13 14  1  0  0  0  0
 14 15  1  0  0  0  0
 14 16  2  0  0  0  0
 12 17  1  0  0  0  0
 17 18  1  0  0  0  0
 18 19  1  0  0  0  0
 18 20  2  0  0  0  0
M  END
> <RowID>
165

> <Original_SMILES>
[Na+].[Na+].[Mg+2].[O-]C(=O)CN(CC([O-])=O)CCN(CC([O-])=O)CC([O-])=O

> <Canonical_QSARr>
OC(=O)CN(CC(O)=O)CCN(CC(O)=O)CC(O)=O

> <InChI_Code_QSARr>
InChI=1S/C10H16N2O8/c13-7(14)3-11(4-8(15)16)1-2-12(5-9(17)18)6-10(19)20/h1-6H2,(H,13,14)(H,15,16)(H,17,18)(H,19,20)

> <InChI Key_QSARr>
KCXVZYZYPLLWCC-UHFFFAOYSA-N

> <Salt_Solvent>
[Na+].[Mg+2]

> <Salt_Solvent_ID>
115

> <Number of connected components>
4

$$$$
Molecule_166
  Mrv2316 01072400032D          

 12 12  0  0  0  0            999 V2000
    2.0243   -1.0313    0.0000 C   0  0  0  0  0  0  0  0  0  0  0  0
    2.0243   -0.2063    0.0000 N   0  0  0  0  0  0  0  0  0  0  0  0
    1.3099    0.2062    0.0000 C   0  0  0  0  0  0  0  0  0  0  0  0
    1.3099    1.0312    0.0000 C   0  0  0  0  0  0  0  0  0  0  0  0
    2.0243    1.4437    0.0000 O   0  0  0  0  0  0  0  0  0  0  0  0
    0.5954    1.4437    0.0000 C   0  0  0  0  0  0  0  0  0  0  0  0
    0.5954    2.2688    0.0000 C   0  0  0  0  0  0  0  0  0  0  0  0
   -0.1191    2.6813    0.0000 C   0  0  0  0  0  0  0  0  0  0  0  0
   -0.1191    3.5063    0.0000 O   0  0  0  0  0  0  0  0  0  0  0  0
   -0.8336    2.2688    0.0000 C   0  0  0  0  0  0  0  0  0  0  0  0
   -0.8336    1.4438    0.0000 C   0  0  0  0  0  0  0  0  0  0  0  0
   -0.1191    1.0313    0.0000 C   0  0  0  0  0  0  0  0  0  0  0  0
  1  2  1  0  0  0  0
  2  3  1  0  0  0  0
  3  4  1  0  0  0  0
  4  5  1  0  0  0  0
  4  6  1  0  0  0  0
  7  6  1  0  0  0  0
  8  7  2  0  0  0  0
  8  9  1  0  0  0  0
 10  8  1  0  0  0  0
 11 10  2  0  0  0  0
 12 11  1  0  0  0  0
  6 12  2  0  0  0  0
M  END
> <RowID>
166

> <Original_SMILES>
CNCC(O)C1C=C(O)C=CC=1

> <Canonical_QSARr>
CNCC(O)C1C=C(O)C=CC=1

> <InChI_Code_QSARr>
InChI=1S/C9H13NO2/c1-10-6-9(12)7-3-2-4-8(11)5-7/h2-5,9-12H,6H2,1H3

> <InChI Key_QSARr>
SONNWYBIRXJNDC-UHFFFAOYSA-N

> <Salt_Solvent>


> <Salt_Solvent_ID>
0

> <Number of connected components>
1

$$$$
Molecule_168
  Mrv2316 01072400032D          

 16 15  0  0  0  0            999 V2000
   -0.3829    6.3789    0.0000 C   0  0  0  0  0  0  0  0  0  0  0  0
   -0.3829    5.5539    0.0000 C   0  0  0  0  0  0  0  0  0  0  0  0
    0.3316    5.1414    0.0000 C   0  0  0  0  0  0  0  0  0  0  0  0
    0.3316    4.3164    0.0000 C   0  0  0  0  0  0  0  0  0  0  0  0
    1.0461    3.9039    0.0000 O   0  0  0  0  0  0  0  0  0  0  0  0
    1.0461    3.0789    0.0000 C   0  0  0  0  0  0  0  0  0  0  0  0
    0.3316    2.6664    0.0000 O   0  0  0  0  0  0  0  0  0  0  0  0
    1.7605    2.6664    0.0000 C   0  0  0  0  0  0  0  0  0  0  0  0
    1.7605    1.8414    0.0000 C   0  0  0  0  0  0  0  0  0  0  0  0
    2.4750    1.4289    0.0000 C   0  0  0  0  0  0  0  0  0  0  0  0
    2.4750    0.6039    0.0000 O   0  0  0  0  0  0  0  0  0  0  0  0
    3.1895    1.8414    0.0000 O   0  0  0  0  0  0  0  0  0  0  0  0
    3.9039    1.4289    0.0000 C   0  0  0  0  0  0  0  0  0  0  0  0
    4.6184    1.8414    0.0000 C   0  0  0  0  0  0  0  0  0  0  0  0
    5.3329    1.4289    0.0000 C   0  0  0  0  0  0  0  0  0  0  0  0
    6.0474    1.8414    0.0000 C   0  0  0  0  0  0  0  0  0  0  0  0
  1  2  1  0  0  0  0
  2  3  1  0  0  0  0
  3  4  1  0  0  0  0
  4  5  1  0  0  0  0
  5  6  1  0  0  0  0
  6  7  2  0  0  0  0
  8  6  1  4  0  0  0
  8  9  2  0  0  0  0
  9 10  1  0  0  0  0
 10 11  2  0  0  0  0
 10 12  1  0  0  0  0
 12 13  1  0  0  0  0
 13 14  1  0  0  0  0
 14 15  1  0  0  0  0
 15 16  1  0  0  0  0
M  END
> <RowID>
168

> <Original_SMILES>
CCCCOC(=O)C=CC(=O)OCCCC

> <Canonical_QSARr>
CCCCOC(=O)C=CC(=O)OCCCC

> <InChI_Code_QSARr>
InChI=1S/C12H20O4/c1-3-5-9-15-11(13)7-8-12(14)16-10-6-4-2/h7-8H,3-6,9-10H2,1-2H3

> <InChI Key_QSARr>
JBSLOWBPDRZSMB-UHFFFAOYSA-N

> <Salt_Solvent>


> <Salt_Solvent_ID>
0

> <Number of connected components>
1

$$$$
Molecule_169
  Mrv2316 01072400032D          

 13 14  0  0  0  0            999 V2000
    0.0000   -0.0000    0.0000 C   0  0  0  0  0  0  0  0  0  0  0  0
    0.7145   -0.4125    0.0000 C   0  0  0  0  0  0  0  0  0  0  0  0
    1.4289    0.0000    0.0000 C   0  0  0  0  0  0  0  0  0  0  0  0
    2.1434   -0.4125    0.0000 C   0  0  0  0  0  0  0  0  0  0  0  0
    2.8579    0.0000    0.0000 O   0  0  0  0  0  0  0  0  0  0  0  0
    3.5724   -0.4125    0.0000 C   0  0  0  0  0  0  0  0  0  0  0  0
    4.2868   -0.0000    0.0000 O   0  0  0  0  0  0  0  0  0  0  0  0
    3.5724   -1.2375    0.0000 N   0  0  0  0  0  0  0  0  0  0  0  0
    2.8579   -1.6500    0.0000 C   0  0  0  0  0  0  0  0  0  0  0  0
    2.8579   -2.4750    0.0000 O   0  0  0  0  0  0  0  0  0  0  0  0
    2.1434   -1.2375    0.0000 C   0  0  0  0  0  0  0  0  0  0  0  0
    1.4289   -1.6500    0.0000 C   0  0  0  0  0  0  0  0  0  0  0  0
    0.7145   -1.2375    0.0000 C   0  0  0  0  0  0  0  0  0  0  0  0
  1  2  1  0  0  0  0
  3  2  2  0  0  0  0
  4  3  1  0  0  0  0
  4  5  1  0  0  0  0
  5  6  1  0  0  0  0
  6  7  2  0  0  0  0
  6  8  1  0  0  0  0
  8  9  1  0  0  0  0
  9 10  2  0  0  0  0
  9 11  1  0  0  0  0
 11  4  2  0  0  0  0
 12 11  1  0  0  0  0
 13 12  2  0  0  0  0
  2 13  1  0  0  0  0
M  END
> <RowID>
169

> <Original_SMILES>
CC1=CC2OC(=O)NC(=O)C=2C=C1

> <Canonical_QSARr>
CC1=CC2OC(=O)NC(=O)C=2C=C1

> <InChI_Code_QSARr>
InChI=1S/C9H7NO3/c1-5-2-3-6-7(4-5)13-9(12)10-8(6)11/h2-4H,1H3,(H,10,11,12)

> <InChI Key_QSARr>
HQUVXRFXGBZDNB-UHFFFAOYSA-N

> <Salt_Solvent>


> <Salt_Solvent_ID>
0

> <Number of connected components>
1

$$$$
Molecule_170
  Mrv2316 01072400032D          

 13 13  0  0  0  0            999 V2000
   -0.2364   -5.0106    0.0000 C   0  0  0  0  0  0  0  0  0  0  0  0
    0.5886   -5.0106    0.0000 C   0  0  0  0  0  0  0  0  0  0  0  0
    1.0011   -4.2961    0.0000 O   0  0  0  0  0  0  0  0  0  0  0  0
    1.8261   -4.2961    0.0000 P   0  0  0  0  0  0  0  0  0  0  0  0
    2.2386   -5.0106    0.0000 O   0  0  0  0  0  0  0  0  0  0  0  0
    3.0636   -5.0106    0.0000 C   0  0  0  0  0  0  0  0  0  0  0  0
    3.4761   -5.7250    0.0000 C   0  0  0  0  0  0  0  0  0  0  0  0
    2.2386   -3.5816    0.0000 C   0  0  0  0  0  0  0  0  0  0  0  0
    3.0636   -3.5816    0.0000 C   0  0  0  0  0  0  0  0  0  0  0  0
    3.4761   -2.8672    0.0000 C   0  0  0  0  0  0  0  0  0  0  0  0
    3.0636   -2.1527    0.0000 C   0  0  0  0  0  0  0  0  0  0  0  0
    2.2386   -2.1527    0.0000 C   0  0  0  0  0  0  0  0  0  0  0  0
    1.8261   -2.8672    0.0000 C   0  0  0  0  0  0  0  0  0  0  0  0
  1  2  1  0  0  0  0
  2  3  1  0  0  0  0
  3  4  1  0  0  0  0
  4  5  1  0  0  0  0
  5  6  1  0  0  0  0
  6  7  1  0  0  0  0
  4  8  1  0  0  0  0
  9  8  1  0  0  0  0
 10  9  2  0  0  0  0
 11 10  1  0  0  0  0
 12 11  2  0  0  0  0
 13 12  1  0  0  0  0
  8 13  2  0  0  0  0
M  END
> <RowID>
170

> <Original_SMILES>
CCOP(OCC)C1C=CC=CC=1

> <Canonical_QSARr>
CCOP(OCC)C1C=CC=CC=1

> <InChI_Code_QSARr>
InChI=1S/C10H15O2P/c1-3-11-13(12-4-2)10-8-6-5-7-9-10/h5-9H,3-4H2,1-2H3

> <InChI Key_QSARr>
RVDJLKVICMLVJQ-UHFFFAOYSA-N

> <Salt_Solvent>


> <Salt_Solvent_ID>
0

> <Number of connected components>
1

$$$$
Molecule_171
  Mrv2316 01072400032D          

 25 27  0  0  0  0            999 V2000
   -4.3154   -0.0495    0.0000 C   0  0  0  0  0  0  0  0  0  0  0  0
   -3.6009   -0.4620    0.0000 O   0  0  0  0  0  0  0  0  0  0  0  0
   -2.8864   -0.0495    0.0000 C   0  0  0  0  0  0  0  0  0  0  0  0
   -2.1720   -0.4620    0.0000 C   0  0  0  0  0  0  0  0  0  0  0  0
   -1.4575   -0.0495    0.0000 C   0  0  0  0  0  0  0  0  0  0  0  0
   -0.7430   -0.4620    0.0000 N   0  0  0  0  0  0  0  0  0  0  0  0
   -0.0286   -0.0495    0.0000 C   0  0  0  0  0  0  0  0  0  0  0  0
   -0.0286    0.7755    0.0000 O   0  0  0  0  0  0  0  0  0  0  0  0
    0.6859   -0.4620    0.0000 C   0  0  0  0  0  0  0  0  0  0  0  0
    1.4004   -0.0495    0.0000 C   0  0  0  0  0  0  0  0  0  0  0  0
    2.1148   -0.4620    0.0000 C   0  0  0  0  0  0  0  0  0  0  0  0
    2.8293   -0.0495    0.0000 C   0  0  0  0  0  0  0  0  0  0  0  0
    3.5438   -0.4620    0.0000 C   0  0  0  0  0  0  0  0  0  0  0  0
    3.5438   -1.2870    0.0000 C   0  0  0  0  0  0  0  0  0  0  0  0
    2.8293   -1.6995    0.0000 C   0  0  0  0  0  0  0  0  0  0  0  0
    2.1148   -1.2870    0.0000 C   0  0  0  0  0  0  0  0  0  0  0  0
    1.4004   -1.6995    0.0000 C   0  0  0  0  0  0  0  0  0  0  0  0
    0.6859   -1.2870    0.0000 C   0  0  0  0  0  0  0  0  0  0  0  0
   -0.0286   -1.6995    0.0000 O   0  0  0  0  0  0  0  0  0  0  0  0
   -1.4575    0.7755    0.0000 C   0  0  0  0  0  0  0  0  0  0  0  0
   -0.7430    1.1880    0.0000 O   0  0  0  0  0  0  0  0  0  0  0  0
   -0.7430    2.0130    0.0000 C   0  0  0  0  0  0  0  0  0  0  0  0
   -2.1720    1.1880    0.0000 C   0  0  0  0  0  0  0  0  0  0  0  0
   -2.8864    0.7755    0.0000 C   0  0  0  0  0  0  0  0  0  0  0  0
   -3.6009    1.1880    0.0000 Cl  0  0  0  0  0  0  0  0  0  0  0  0
  1  2  1  0  0  0  0
  2  3  1  0  0  0  0
  4  3  2  0  0  0  0
  5  4  1  0  0  0  0
  5  6  1  0  0  0  0
  6  7  1  0  0  0  0
  7  8  2  0  0  0  0
  7  9  1  0  0  0  0
 10  9  1  0  0  0  0
 11 10  2  0  0  0  0
 11 12  1  0  0  0  0
 12 13  2  0  0  0  0
 13 14  1  0  0  0  0
 14 15  2  0  0  0  0
 15 16  1  0  0  0  0
 16 11  1  0  0  0  0
 17 16  2  0  0  0  0
 18 17  1  0  0  0  0
  9 18  2  0  0  0  0
 18 19  1  0  0  0  0
 20  5  2  0  0  0  0
 20 21  1  0  0  0  0
 21 22  1  0  0  0  0
 23 20  1  0  0  0  0
 24 23  2  0  0  0  0
  3 24  1  0  0  0  0
 24 25  1  0  0  0  0
M  END
> <RowID>
171

> <Original_SMILES>
COC1=CC(NC(=O)C2C=C3C=CC=CC3=CC=2O)=C(C=C1Cl)OC

> <Canonical_QSARr>
COC1=CC(NC(=O)C2C=C3C=CC=CC3=CC=2O)=C(C=C1Cl)OC

> <InChI_Code_QSARr>
InChI=1S/C19H16ClNO4/c1-24-17-10-15(18(25-2)9-14(17)20)21-19(23)13-7-11-5-3-4-6-12(11)8-16(13)22/h3-10,22H,1-2H3,(H,21,23)

> <InChI Key_QSARr>
QIHKTBRNOLQDGQ-UHFFFAOYSA-N

> <Salt_Solvent>


> <Salt_Solvent_ID>
0

> <Number of connected components>
1

$$$$
Molecule_172
  Mrv2316 01072400032D          

 34 36  0  0  0  0            999 V2000
    0.1601   -5.2812    0.0000 C   0  0  0  0  0  0  0  0  0  0  0  0
   -0.6246   -5.5361    0.0000 C   0  0  0  0  0  0  0  0  0  0  0  0
   -0.7961   -6.3431    0.0000 C   0  0  0  0  0  0  0  0  0  0  0  0
   -1.2376   -4.9841    0.0000 N   0  0  0  0  0  0  0  0  0  0  0  0
   -2.0446   -5.1556    0.0000 C   0  0  0  0  0  0  0  0  0  0  0  0
   -2.4571   -5.8701    0.0000 C   0  0  0  0  0  0  0  0  0  0  0  0
   -3.2821   -5.8701    0.0000 C   0  0  0  0  0  0  0  0  0  0  0  0
   -3.6946   -5.1556    0.0000 C   0  0  0  0  0  0  0  0  0  0  0  0
   -3.2821   -4.4411    0.0000 C   0  0  0  0  0  0  0  0  0  0  0  0
   -2.4571   -4.4411    0.0000 C   0  0  0  0  0  0  0  0  0  0  0  0
   -1.9051   -3.8280    0.0000 C   0  0  0  0  0  0  0  0  0  0  0  0
   -2.0766   -3.0211    0.0000 C   0  0  0  0  0  0  0  0  0  0  0  0
   -1.4635   -2.4690    0.0000 C   0  0  0  0  0  0  0  0  0  0  0  0
   -1.6350   -1.6621    0.0000 C   0  0  0  0  0  0  0  0  0  0  0  0
   -2.4197   -1.4071    0.0000 C   0  0  0  0  0  0  0  0  0  0  0  0
   -2.5912   -0.6002    0.0000 F   0  0  0  0  0  0  0  0  0  0  0  0
   -3.0328   -1.9592    0.0000 C   0  0  0  0  0  0  0  0  0  0  0  0
   -2.8612   -2.7661    0.0000 C   0  0  0  0  0  0  0  0  0  0  0  0
   -1.1514   -4.1636    0.0000 C   0  0  0  0  0  0  0  0  0  0  0  0
   -0.4369   -3.7511    0.0000 C   0  0  0  0  0  0  0  0  0  0  0  0
    0.2775   -4.1636    0.0000 C   0  0  0  0  0  0  0  0  0  0  0  0
    0.9920   -3.7511    0.0000 C   0  0  0  0  0  0  0  0  0  0  0  0
    0.9920   -2.9261    0.0000 O   0  0  0  0  0  0  0  0  0  0  0  0
    1.7065   -4.1636    0.0000 C   0  0  0  0  0  0  0  0  0  0  0  0
    2.4209   -3.7511    0.0000 C   0  0  0  0  0  0  0  0  0  0  0  0
    2.4209   -2.9261    0.0000 O   0  0  0  0  0  0  0  0  0  0  0  0
    3.1354   -4.1636    0.0000 C   0  0  0  0  0  0  0  0  0  0  0  0
    3.8499   -3.7511    0.0000 C   0  0  0  0  0  0  0  0  0  0  0  0
    3.8499   -2.9261    0.0000 O   0  0  0  0  0  0  0  0  0  0  0  0
    4.5644   -4.1636    0.0000 O   0  0  0  0  0  0  0  0  0  0  0  0
    5.2788   -3.7511    0.0000 C   0  0  0  0  0  0  0  0  0  0  0  0
    5.9933   -3.3386    0.0000 C   0  0  0  0  0  0  0  0  0  0  0  0
    5.6913   -4.4656    0.0000 C   0  0  0  0  0  0  0  0  0  0  0  0
    4.8663   -3.0366    0.0000 C   0  0  0  0  0  0  0  0  0  0  0  0
  1  2  1  0  0  0  0
  2  3  1  0  0  0  0
  2  4  1  0  0  0  0
  5  4  1  0  0  0  0
  5  6  1  0  0  0  0
  6  7  2  0  0  0  0
  7  8  1  0  0  0  0
  8  9  2  0  0  0  0
  9 10  1  0  0  0  0
 10  5  2  0  0  0  0
 11 10  1  0  0  0  0
 11 12  1  0  0  0  0
 13 12  2  0  0  0  0
 14 13  1  0  0  0  0
 15 14  2  0  0  0  0
 15 16  1  0  0  0  0
 17 15  1  0  0  0  0
 18 17  2  0  0  0  0
 12 18  1  0  0  0  0
 19 11  2  0  0  0  0
  4 19  1  0  0  0  0
 20 19  1  4  0  0  0
 20 21  2  0  0  0  0
 21 22  1  0  0  0  0
 22 23  1  0  0  0  0
 22 24  1  0  0  0  0
 24 25  1  0  0  0  0
 25 26  1  0  0  0  0
 25 27  1  0  0  0  0
 27 28  1  0  0  0  0
 28 29  2  0  0  0  0
 28 30  1  0  0  0  0
 30 31  1  0  0  0  0
 31 32  1  0  0  0  0
 31 33  1  0  0  0  0
 31 34  1  0  0  0  0
M  END
> <RowID>
172

> <Original_SMILES>
CC(C)N1C2C=CC=CC=2C(=C1C=CC(O)CC(O)CC(=O)OC(C)(C)C)C1=CC=C(F)C=C1

> <Canonical_QSARr>
CC(C)N1C2C=CC=CC=2C(=C1C=CC(O)CC(O)CC(=O)OC(C)(C)C)C1=CC=C(F)C=C1

> <InChI_Code_QSARr>
InChI=1S/C28H34FNO4/c1-18(2)30-24-9-7-6-8-23(24)27(19-10-12-20(29)13-11-19)25(30)15-14-21(31)16-22(32)17-26(33)34-28(3,4)5/h6-15,18,21-22,31-32H,16-17H2,1-5H3

> <InChI Key_QSARr>
USGKHYXJISAYPE-UHFFFAOYSA-N

> <Salt_Solvent>


> <Salt_Solvent_ID>
0

> <Number of connected components>
1

$$$$
Molecule_174
  Mrv2316 01072400032D          

 11 11  0  0  0  0            999 V2000
    1.6238    3.7125    0.0000 O   0  0  0  0  0  0  0  0  0  0  0  0
    0.9093    3.3000    0.0000 C   0  0  0  0  0  0  0  0  0  0  0  0
    0.1949    3.7125    0.0000 O   0  0  0  0  0  0  0  0  0  0  0  0
    0.9093    2.4750    0.0000 C   0  0  0  0  0  0  0  0  0  0  0  0
    0.1949    2.0625    0.0000 O   0  0  0  0  0  0  0  0  0  0  0  0
    0.1949    1.2375    0.0000 C   0  0  0  0  0  0  0  0  0  0  0  0
   -0.5196    0.8250    0.0000 C   0  0  0  0  0  0  0  0  0  0  0  0
   -0.5196   -0.0000    0.0000 C   0  0  0  0  0  0  0  0  0  0  0  0
    0.1949   -0.4125    0.0000 C   0  0  0  0  0  0  0  0  0  0  0  0
    0.9093    0.0000    0.0000 C   0  0  0  0  0  0  0  0  0  0  0  0
    0.9093    0.8250    0.0000 C   0  0  0  0  0  0  0  0  0  0  0  0
  1  2  1  0  0  0  0
  2  3  2  0  0  0  0
  2  4  1  0  0  0  0
  4  5  1  0  0  0  0
  5  6  1  0  0  0  0
  7  6  2  0  0  0  0
  8  7  1  0  0  0  0
  9  8  2  0  0  0  0
 10  9  1  0  0  0  0
 11 10  2  0  0  0  0
  6 11  1  0  0  0  0
M  END
> <RowID>
174

> <Original_SMILES>
[Na+].[O-]C(=O)COC1C=CC=CC=1

> <Canonical_QSARr>
OC(=O)COC1C=CC=CC=1

> <InChI_Code_QSARr>
InChI=1S/C8H8O3/c9-8(10)6-11-7-4-2-1-3-5-7/h1-5H,6H2,(H,9,10)

> <InChI Key_QSARr>
LCPDWSOZIOUXRV-UHFFFAOYSA-N

> <Salt_Solvent>
[Na+]

> <Salt_Solvent_ID>
110

> <Number of connected components>
2

$$$$
Molecule_175
  Mrv2316 01072400032D          

 20 19  0  0  0  0            999 V2000
    5.3625    2.1434    0.0000 F   0  0  0  0  0  0  0  0  0  0  0  0
    4.9500    1.4289    0.0000 C   0  0  0  0  0  0  0  0  0  0  0  0
    4.2355    1.8414    0.0000 F   0  0  0  0  0  0  0  0  0  0  0  0
    5.6645    1.0164    0.0000 F   0  0  0  0  0  0  0  0  0  0  0  0
    4.5375    0.7145    0.0000 O   0  0  0  0  0  0  0  0  0  0  0  0
    3.7125    0.7145    0.0000 C   0  0  0  0  0  0  0  0  0  0  0  0
    3.7125    1.5395    0.0000 F   0  0  0  0  0  0  0  0  0  0  0  0
    3.7125   -0.1105    0.0000 F   0  0  0  0  0  0  0  0  0  0  0  0
    2.8875    0.7145    0.0000 C   0  0  0  0  0  0  0  0  0  0  0  0
    2.8875    1.5395    0.0000 F   0  0  0  0  0  0  0  0  0  0  0  0
    2.8875   -0.1105    0.0000 F   0  0  0  0  0  0  0  0  0  0  0  0
    2.0625    0.7145    0.0000 C   0  0  0  0  0  0  0  0  0  0  0  0
    2.0625    1.5395    0.0000 F   0  0  0  0  0  0  0  0  0  0  0  0
    2.0625   -0.1105    0.0000 F   0  0  0  0  0  0  0  0  0  0  0  0
    1.2375    0.7145    0.0000 O   0  0  0  0  0  0  0  0  0  0  0  0
    0.8250    0.0000    0.0000 C   0  0  0  0  0  0  0  0  0  0  0  0
    1.2375   -0.7145    0.0000 F   0  0  0  0  0  0  0  0  0  0  0  0
    0.0000    0.0000    0.0000 C   0  0  0  0  0  0  0  0  0  0  0  0
   -0.4125   -0.7145    0.0000 F   0  0  0  0  0  0  0  0  0  0  0  0
   -0.4125    0.7145    0.0000 F   0  0  0  0  0  0  0  0  0  0  0  0
  1  2  1  0  0  0  0
  2  3  1  0  0  0  0
  2  4  1  0  0  0  0
  2  5  1  0  0  0  0
  5  6  1  0  0  0  0
  6  7  1  0  0  0  0
  6  8  1  0  0  0  0
  6  9  1  0  0  0  0
  9 10  1  0  0  0  0
  9 11  1  0  0  0  0
  9 12  1  0  0  0  0
 12 13  1  0  0  0  0
 12 14  1  0  0  0  0
 12 15  1  0  0  0  0
 15 16  1  0  0  0  0
 16 17  1  0  0  0  0
 16 18  2  0  0  0  0
 18 19  1  0  0  0  0
 18 20  1  0  0  0  0
M  END
> <RowID>
175

> <Original_SMILES>
FC(F)(F)OC(F)(F)C(F)(F)C(F)(F)OC(F)=C(F)F

> <Canonical_QSARr>
FC(F)(F)OC(F)(F)C(F)(F)C(F)(F)OC(F)=C(F)F

> <InChI_Code_QSARr>
InChI=1S/C6F12O2/c7-1(8)2(9)19-4(12,13)3(10,11)5(14,15)20-6(16,17)18

> <InChI Key_QSARr>
ZWWNWGPNBZIACR-UHFFFAOYSA-N

> <Salt_Solvent>


> <Salt_Solvent_ID>
0

> <Number of connected components>
1

$$$$
Molecule_176
  Mrv2316 01072400032D          

 31 32  0  0  0  0            999 V2000
    5.7158   -5.7750    0.0000 C   0  0  0  0  0  0  0  0  0  0  0  0
    5.0013   -5.3625    0.0000 C   0  0  0  0  0  0  0  0  0  0  0  0
    5.4138   -4.6480    0.0000 C   0  0  0  0  0  0  0  0  0  0  0  0
    4.5888   -6.0770    0.0000 C   0  0  0  0  0  0  0  0  0  0  0  0
    4.2868   -4.9500    0.0000 C   0  0  0  0  0  0  0  0  0  0  0  0
    4.2868   -4.1250    0.0000 C   0  0  0  0  0  0  0  0  0  0  0  0
    3.5724   -3.7125    0.0000 C   0  0  0  0  0  0  0  0  0  0  0  0
    3.5724   -2.8875    0.0000 C   0  0  0  0  0  0  0  0  0  0  0  0
    2.8579   -2.4750    0.0000 C   0  0  0  0  0  0  0  0  0  0  0  0
    2.8579   -1.6500    0.0000 C   0  0  0  0  0  0  0  0  0  0  0  0
    2.1434   -1.2375    0.0000 C   0  0  0  0  0  0  0  0  0  0  0  0
    2.1434   -0.4125    0.0000 C   0  0  0  0  0  0  0  0  0  0  0  0
    2.1434    0.4125    0.0000 C   0  0  0  0  0  0  0  0  0  0  0  0
    2.9684   -0.4125    0.0000 C   0  0  0  0  0  0  0  0  0  0  0  0
    1.3184   -0.4125    0.0000 C   0  0  0  0  0  0  0  0  0  0  0  0
    1.4289   -1.6500    0.0000 C   0  0  0  0  0  0  0  0  0  0  0  0
    0.7145   -1.2375    0.0000 O   0  0  0  0  0  0  0  0  0  0  0  0
    1.4289   -2.4750    0.0000 C   0  0  0  0  0  0  0  0  0  0  0  0
    0.7145   -2.8875    0.0000 C   0  0  0  0  0  0  0  0  0  0  0  0
    0.0000   -3.3000    0.0000 C   0  0  0  0  0  0  0  0  0  0  0  0
    1.1270   -3.6020    0.0000 C   0  0  0  0  0  0  0  0  0  0  0  0
    0.3020   -2.1730    0.0000 C   0  0  0  0  0  0  0  0  0  0  0  0
    2.1434   -2.8875    0.0000 C   0  0  0  0  0  0  0  0  0  0  0  0
    2.8579   -4.1250    0.0000 C   0  0  0  0  0  0  0  0  0  0  0  0
    2.8579   -4.9500    0.0000 C   0  0  0  0  0  0  0  0  0  0  0  0
    2.1434   -5.3625    0.0000 C   0  0  0  0  0  0  0  0  0  0  0  0
    1.4289   -5.7750    0.0000 C   0  0  0  0  0  0  0  0  0  0  0  0
    2.5559   -6.0770    0.0000 C   0  0  0  0  0  0  0  0  0  0  0  0
    1.7309   -4.6480    0.0000 C   0  0  0  0  0  0  0  0  0  0  0  0
    3.5724   -5.3625    0.0000 C   0  0  0  0  0  0  0  0  0  0  0  0
    3.5724   -6.1875    0.0000 O   0  0  0  0  0  0  0  0  0  0  0  0
  1  2  1  0  0  0  0
  2  3  1  0  0  0  0
  2  4  1  0  0  0  0
  2  5  1  0  0  0  0
  6  5  2  0  0  0  0
  7  6  1  0  0  0  0
  7  8  1  0  0  0  0
  8  9  1  0  0  0  0
 10  9  2  0  0  0  0
 11 10  1  0  0  0  0
 11 12  1  0  0  0  0
 12 13  1  0  0  0  0
 12 14  1  0  0  0  0
 12 15  1  0  0  0  0
 16 11  2  0  0  0  0
 16 17  1  0  0  0  0
 18 16  1  0  0  0  0
 18 19  1  0  0  0  0
 19 20  1  0  0  0  0
 19 21  1  0  0  0  0
 19 22  1  0  0  0  0
 23 18  2  0  0  0  0
  9 23  1  0  0  0  0
 24  7  2  0  0  0  0
 25 24  1  0  0  0  0
 25 26  1  0  0  0  0
 26 27  1  0  0  0  0
 26 28  1  0  0  0  0
 26 29  1  0  0  0  0
 30 25  2  0  0  0  0
  5 30  1  0  0  0  0
 30 31  1  0  0  0  0
M  END
> <RowID>
176

> <Original_SMILES>
CC(C)(C)C1=CC(CC2=CC(=C(O)C(=C2)C(C)(C)C)C(C)(C)C)=CC(=C1O)C(C)(C)C

> <Canonical_QSARr>
CC(C)(C)C1=CC(CC2=CC(=C(O)C(=C2)C(C)(C)C)C(C)(C)C)=CC(=C1O)C(C)(C)C

> <InChI_Code_QSARr>
InChI=1S/C29H44O2/c1-26(2,3)20-14-18(15-21(24(20)30)27(4,5)6)13-19-16-22(28(7,8)9)25(31)23(17-19)29(10,11)12/h14-17,30-31H,13H2,1-12H3

> <InChI Key_QSARr>
MDWVSAYEQPLWMX-UHFFFAOYSA-N

> <Salt_Solvent>


> <Salt_Solvent_ID>
0

> <Number of connected components>
1

$$$$
Molecule_178
  Mrv2316 01072400032D          

 11 11  0  0  0  0            999 V2000
    0.7145   -1.0125    0.0000 C   0  0  0  0  0  0  0  0  0  0  0  0
    0.7145   -0.1875    0.0000 C   0  0  0  0  0  0  0  0  0  0  0  0
    1.5395   -0.1875    0.0000 C   0  0  0  0  0  0  0  0  0  0  0  0
   -0.1105   -0.1875    0.0000 C   0  0  0  0  0  0  0  0  0  0  0  0
    0.7145    0.6375    0.0000 C   0  0  0  0  0  0  0  0  0  0  0  0
    1.4290    1.0500    0.0000 C   0  0  0  0  0  0  0  0  0  0  0  0
    1.4290    1.8750    0.0000 C   0  0  0  0  0  0  0  0  0  0  0  0
    0.7145    2.2875    0.0000 C   0  0  0  0  0  0  0  0  0  0  0  0
    0.7145    3.1125    0.0000 O   0  0  0  0  0  0  0  0  0  0  0  0
    0.0000    1.8750    0.0000 C   0  0  0  0  0  0  0  0  0  0  0  0
    0.0000    1.0500    0.0000 C   0  0  0  0  0  0  0  0  0  0  0  0
  1  2  1  0  0  0  0
  2  3  1  0  0  0  0
  2  4  1  0  0  0  0
  2  5  1  0  0  0  0
  6  5  1  0  0  0  0
  7  6  1  0  0  0  0
  8  7  1  0  0  0  0
  8  9  2  0  0  0  0
 10  8  1  0  0  0  0
 11 10  1  0  0  0  0
  5 11  1  0  0  0  0
M  END
> <RowID>
178

> <Original_SMILES>
CC(C)(C)C1CCC(=O)CC1

> <Canonical_QSARr>
CC(C)(C)C1CCC(=O)CC1

> <InChI_Code_QSARr>
InChI=1S/C10H18O/c1-10(2,3)8-4-6-9(11)7-5-8/h8H,4-7H2,1-3H3

> <InChI Key_QSARr>
YKFKEYKJGVSEIX-UHFFFAOYSA-N

> <Salt_Solvent>


> <Salt_Solvent_ID>
0

> <Number of connected components>
1

$$$$
Molecule_179
  Mrv2316 01072400032D          

 28 29  0  0  0  0            999 V2000
   -2.3221   -2.5781    0.0000 C   0  0  0  0  0  0  0  0  0  0  0  0
   -2.3221   -3.4031    0.0000 C   0  0  0  0  0  0  0  0  0  0  0  0
   -3.0365   -3.8156    0.0000 C   0  0  0  0  0  0  0  0  0  0  0  0
   -3.0365   -4.6406    0.0000 C   0  0  0  0  0  0  0  0  0  0  0  0
   -3.7510   -5.0531    0.0000 C   0  0  0  0  0  0  0  0  0  0  0  0
   -4.4655   -4.6406    0.0000 C   0  0  0  0  0  0  0  0  0  0  0  0
   -5.1799   -5.0531    0.0000 C   0  0  0  0  0  0  0  0  0  0  0  0
   -5.8944   -4.6406    0.0000 C   0  0  0  0  0  0  0  0  0  0  0  0
   -5.1799   -5.8781    0.0000 C   0  0  0  0  0  0  0  0  0  0  0  0
   -5.8944   -6.2906    0.0000 N   0  0  0  0  0  0  0  0  0  0  0  0
   -5.8944   -7.1156    0.0000 C   0  0  0  0  0  0  0  0  0  0  0  0
   -5.1799   -7.5281    0.0000 O   0  0  0  0  0  0  0  0  0  0  0  0
   -6.6089   -7.5281    0.0000 C   0  0  0  0  0  0  0  0  0  0  0  0
   -6.6089   -8.3531    0.0000 C   0  0  0  0  0  0  0  0  0  0  0  0
   -7.3234   -8.7656    0.0000 C   0  0  0  0  0  0  0  0  0  0  0  0
   -5.8944   -8.7656    0.0000 O   0  0  0  0  0  0  0  0  0  0  0  0
   -4.4655   -6.2906    0.0000 C   0  0  0  0  0  0  0  0  0  0  0  0
   -3.7510   -5.8781    0.0000 C   0  0  0  0  0  0  0  0  0  0  0  0
   -2.3221   -5.0531    0.0000 C   0  0  0  0  0  0  0  0  0  0  0  0
   -1.6076   -4.6406    0.0000 C   0  0  0  0  0  0  0  0  0  0  0  0
   -1.6076   -3.8156    0.0000 C   0  0  0  0  0  0  0  0  0  0  0  0
   -0.8931   -3.4031    0.0000 N   0  0  0  0  0  0  0  0  0  0  0  0
   -0.1786   -3.8156    0.0000 C   0  0  0  0  0  0  0  0  0  0  0  0
   -0.1786   -4.6406    0.0000 O   0  0  0  0  0  0  0  0  0  0  0  0
    0.5358   -3.4031    0.0000 C   0  0  0  0  0  0  0  0  0  0  0  0
    1.2503   -3.8156    0.0000 C   0  0  0  0  0  0  0  0  0  0  0  0
    1.9648   -3.4031    0.0000 C   0  0  0  0  0  0  0  0  0  0  0  0
    1.2503   -4.6406    0.0000 O   0  0  0  0  0  0  0  0  0  0  0  0
  1  2  1  0  0  0  0
  3  2  1  0  0  0  0
  4  3  2  0  0  0  0
  4  5  1  0  0  0  0
  6  5  1  0  0  0  0
  7  6  2  0  0  0  0
  7  8  1  0  0  0  0
  9  7  1  0  0  0  0
  9 10  1  0  0  0  0
 10 11  1  0  0  0  0
 11 12  2  0  0  0  0
 11 13  1  0  0  0  0
 13 14  1  0  0  0  0
 14 15  1  0  0  0  0
 14 16  2  0  0  0  0
 17  9  2  0  0  0  0
 18 17  1  0  0  0  0
  5 18  2  0  0  0  0
 19  4  1  0  0  0  0
 20 19  2  0  0  0  0
 21 20  1  0  0  0  0
  2 21  2  0  0  0  0
 21 22  1  0  0  0  0
 22 23  1  0  0  0  0
 23 24  2  0  0  0  0
 23 25  1  0  0  0  0
 25 26  1  0  0  0  0
 26 27  1  0  0  0  0
 26 28  2  0  0  0  0
M  END
> <RowID>
179

> <Original_SMILES>
CC1C=C(C=CC=1NC(=O)CC(C)=O)C1C=C(C)C(=CC=1)NC(=O)CC(C)=O

> <Canonical_QSARr>
CC1C=C(C=CC=1NC(=O)CC(C)=O)C1C=C(C)C(=CC=1)NC(=O)CC(C)=O

> <InChI_Code_QSARr>
InChI=1S/C22H24N2O4/c1-13-9-17(5-7-19(13)23-21(27)11-15(3)25)18-6-8-20(14(2)10-18)24-22(28)12-16(4)26/h5-10H,11-12H2,1-4H3,(H,23,27)(H,24,28)

> <InChI Key_QSARr>
CRRLDLPBQWRVGN-UHFFFAOYSA-N

> <Salt_Solvent>


> <Salt_Solvent_ID>
0

> <Number of connected components>
1

$$$$
Molecule_180
  Mrv2316 01072400032D          

 11 10  0  0  0  0            999 V2000
    2.9980    2.5559    0.0000 C   0  0  0  0  0  0  0  0  0  0  0  0
    3.7125    2.1434    0.0000 O   0  0  0  0  0  0  0  0  0  0  0  0
    4.4270    2.5559    0.0000 C   0  0  0  0  0  0  0  0  0  0  0  0
    4.4270    3.3809    0.0000 O   0  0  0  0  0  0  0  0  0  0  0  0
    5.1414    2.1434    0.0000 C   0  0  0  0  0  0  0  0  0  0  0  0
    5.8559    2.5559    0.0000 C   0  0  0  0  0  0  0  0  0  0  0  0
    6.5704    2.1434    0.0000 C   0  0  0  0  0  0  0  0  0  0  0  0
    7.2849    2.5559    0.0000 C   0  0  0  0  0  0  0  0  0  0  0  0
    7.2849    3.3809    0.0000 O   0  0  0  0  0  0  0  0  0  0  0  0
    7.9993    2.1434    0.0000 O   0  0  0  0  0  0  0  0  0  0  0  0
    8.7138    2.5559    0.0000 C   0  0  0  0  0  0  0  0  0  0  0  0
  1  2  1  0  0  0  0
  2  3  1  0  0  0  0
  3  4  2  0  0  0  0
  3  5  1  0  0  0  0
  5  6  1  0  0  0  0
  6  7  1  0  0  0  0
  7  8  1  0  0  0  0
  8  9  2  0  0  0  0
  8 10  1  0  0  0  0
 10 11  1  0  0  0  0
M  END
> <RowID>
180

> <Original_SMILES>
COC(=O)CCCC(=O)OC

> <Canonical_QSARr>
COC(=O)CCCC(=O)OC

> <InChI_Code_QSARr>
InChI=1S/C7H12O4/c1-10-6(8)4-3-5-7(9)11-2/h3-5H2,1-2H3

> <InChI Key_QSARr>
XTDYIOOONNVFMA-UHFFFAOYSA-N

> <Salt_Solvent>


> <Salt_Solvent_ID>
0

> <Number of connected components>
1

$$$$
Molecule_183
  Mrv2316 01072400032D          

  8  8  0  0  0  0            999 V2000
   -0.3106   -1.3137    0.0000 C   0  0  0  0  0  0  0  0  0  0  0  0
    0.1743   -0.6463    0.0000 N   0  3  0  0  0  0  0  0  0  0  0  0
    0.9993   -0.6463    0.0000 C   0  0  0  0  0  0  0  0  0  0  0  0
    1.2543    0.1383    0.0000 C   0  0  0  0  0  0  0  0  0  0  0  0
    0.5868    0.6233    0.0000 N   0  0  0  0  0  0  0  0  0  0  0  0
    0.5868    1.4483    0.0000 C   0  0  0  0  0  0  0  0  0  0  0  0
   -0.1276    1.8608    0.0000 C   0  0  0  0  0  0  0  0  0  0  0  0
   -0.0806    0.1383    0.0000 C   0  0  0  0  0  0  0  0  0  0  0  0
  1  2  1  0  0  0  0
  3  2  1  0  0  0  0
  4  3  2  0  0  0  0
  5  4  1  0  0  0  0
  5  6  1  0  0  0  0
  6  7  2  0  0  0  0
  8  5  1  0  0  0  0
  2  8  2  0  0  0  0
M  CHG  1   2   1
M  END
> <RowID>
183

> <Original_SMILES>
COS([O-])(=O)=O.C[N+]1=CN(C=C)C=C1

> <Canonical_QSARr>
C[N+]1=CN(C=C)C=C1

> <InChI_Code_QSARr>
InChI=1S/C6H9N2/c1-3-8-5-4-7(2)6-8/h3-6H,1H2,2H3/q+1

> <InChI Key_QSARr>
VPNMTSAIINVZTK-UHFFFAOYSA-N

> <Salt_Solvent>
COS(=O)(=O)[O-]

> <Salt_Solvent_ID>
2242

> <Number of connected components>
2

$$$$
Molecule_184
  Mrv2316 01072400032D          

 34 36  0  0  0  0            999 V2000
    4.0053   -7.2894    0.0000 O   0  0  0  0  0  0  0  0  0  0  0  0
    4.7198   -7.7019    0.0000 C   0  0  0  0  0  0  0  0  0  0  0  0
    4.7198   -8.5269    0.0000 C   0  0  0  0  0  0  0  0  0  0  0  0
    5.4343   -8.9394    0.0000 C   0  0  0  0  0  0  0  0  0  0  0  0
    6.1488   -8.5269    0.0000 C   0  0  0  0  0  0  0  0  0  0  0  0
    6.1488   -7.7019    0.0000 C   0  0  0  0  0  0  0  0  0  0  0  0
    5.4343   -7.2894    0.0000 C   0  0  0  0  0  0  0  0  0  0  0  0
    5.4343   -6.4644    0.0000 C   0  0  0  0  0  0  0  0  0  0  0  0
    6.1488   -6.0519    0.0000 N   0  0  0  0  0  0  0  0  0  0  0  0
    6.1488   -5.2269    0.0000 C   0  0  0  0  0  0  0  0  0  0  0  0
    5.4343   -4.8144    0.0000 C   0  0  0  0  0  0  0  0  0  0  0  0
    5.4343   -3.9894    0.0000 N   0  0  0  0  0  0  0  0  0  0  0  0
    4.7198   -3.5769    0.0000 C   0  0  0  0  0  0  0  0  0  0  0  0
    4.7198   -2.7519    0.0000 C   0  0  0  0  0  0  0  0  0  0  0  0
    4.0053   -2.3394    0.0000 N   0  0  0  0  0  0  0  0  0  0  0  0
    4.0053   -1.5144    0.0000 C   0  0  0  0  0  0  0  0  0  0  0  0
    3.2909   -1.1019    0.0000 C   0  0  0  0  0  0  0  0  0  0  0  0
    3.2909   -0.2769    0.0000 C   0  0  0  0  0  0  0  0  0  0  0  0
    2.5764    0.1356    0.0000 C   0  0  0  0  0  0  0  0  0  0  0  0
    1.8619   -0.2769    0.0000 C   0  0  0  0  0  0  0  0  0  0  0  0
    1.8619   -1.1019    0.0000 C   0  0  0  0  0  0  0  0  0  0  0  0
    2.5764   -1.5144    0.0000 C   0  0  0  0  0  0  0  0  0  0  0  0
    2.5764   -2.3394    0.0000 O   0  0  0  0  0  0  0  0  0  0  0  0
    6.1488   -3.5769    0.0000 C   0  0  0  0  0  0  0  0  0  0  0  0
    6.1488   -2.7519    0.0000 C   0  0  0  0  0  0  0  0  0  0  0  0
    6.8632   -2.3394    0.0000 N   0  0  0  0  0  0  0  0  0  0  0  0
    6.8632   -1.5144    0.0000 C   0  0  0  0  0  0  0  0  0  0  0  0
    7.5777   -1.1019    0.0000 C   0  0  0  0  0  0  0  0  0  0  0  0
    8.2922   -1.5144    0.0000 C   0  0  0  0  0  0  0  0  0  0  0  0
    9.0066   -1.1019    0.0000 C   0  0  0  0  0  0  0  0  0  0  0  0
    9.0066   -0.2769    0.0000 C   0  0  0  0  0  0  0  0  0  0  0  0
    8.2922    0.1356    0.0000 C   0  0  0  0  0  0  0  0  0  0  0  0
    7.5777   -0.2769    0.0000 C   0  0  0  0  0  0  0  0  0  0  0  0
    6.8632    0.1356    0.0000 O   0  0  0  0  0  0  0  0  0  0  0  0
  1  2  1  0  0  0  0
  3  2  1  0  0  0  0
  4  3  2  0  0  0  0
  5  4  1  0  0  0  0
  6  5  2  0  0  0  0
  7  6  1  0  0  0  0
  2  7  2  0  0  0  0
  8  7  1  4  0  0  0
  8  9  2  0  0  0  0
  9 10  1  0  0  0  0
 10 11  1  0  0  0  0
 11 12  1  0  0  0  0
 12 13  1  0  0  0  0
 13 14  1  0  0  0  0
 15 14  1  4  0  0  0
 15 16  2  0  0  0  0
 16 17  1  0  0  0  0
 18 17  1  0  0  0  0
 19 18  2  0  0  0  0
 20 19  1  0  0  0  0
 21 20  2  0  0  0  0
 22 21  1  0  0  0  0
 17 22  2  0  0  0  0
 22 23  1  0  0  0  0
 12 24  1  0  0  0  0
 24 25  1  0  0  0  0
 26 25  1  4  0  0  0
 26 27  2  0  0  0  0
 27 28  1  0  0  0  0
 29 28  1  0  0  0  0
 30 29  2  0  0  0  0
 31 30  1  0  0  0  0
 32 31  2  0  0  0  0
 33 32  1  0  0  0  0
 28 33  2  0  0  0  0
 33 34  1  0  0  0  0
M  END
> <RowID>
184

> <Original_SMILES>
[Mn+3].[O-]C1C=CC=CC=1C=NCCN(CCN=CC1=CC=CC=C1[O-])CCN=CC1=CC=CC=C1[O-]

> <Canonical_QSARr>
OC1C=CC=CC=1C=NCCN(CCN=CC1C=CC=CC=1O)CCN=CC1C=CC=CC=1O

> <InChI_Code_QSARr>
InChI=1S/C27H30N4O3/c32-25-10-4-1-7-22(25)19-28-13-16-31(17-14-29-20-23-8-2-5-11-26(23)33)18-15-30-21-24-9-3-6-12-27(24)34/h1-12,19-21,32-34H,13-18H2

> <InChI Key_QSARr>
DZZHTBPFHQTUJO-UHFFFAOYSA-N

> <Salt_Solvent>
[Mn+3]

> <Salt_Solvent_ID>
250

> <Number of connected components>
2

$$$$
Molecule_185
  Mrv2316 01072400032D          

 13 12  0  0  0  0            999 V2000
   -0.1914   -2.3645    0.0000 O   0  0  0  0  0  0  0  0  0  0  0  0
    0.5230   -1.9520    0.0000 C   0  0  0  0  0  0  0  0  0  0  0  0
    1.2375   -2.3645    0.0000 O   0  0  0  0  0  0  0  0  0  0  0  0
    0.5230   -1.1270    0.0000 C   0  0  0  0  0  0  0  0  0  0  0  0
    1.2375   -0.7145    0.0000 C   0  0  0  0  0  0  0  0  0  0  0  0
    1.9520   -0.3020    0.0000 C   0  0  0  0  0  0  0  0  0  0  0  0
    2.6664   -0.7145    0.0000 C   0  0  0  0  0  0  0  0  0  0  0  0
    3.3809   -0.3020    0.0000 O   0  0  0  0  0  0  0  0  0  0  0  0
    2.6664   -1.5395    0.0000 O   0  0  0  0  0  0  0  0  0  0  0  0
    1.6500   -1.4290    0.0000 O   0  0  0  0  0  0  0  0  0  0  0  0
    0.8250   -0.0000    0.0000 C   0  0  0  0  0  0  0  0  0  0  0  0
    1.2375    0.7145    0.0000 O   0  0  0  0  0  0  0  0  0  0  0  0
   -0.0000   -0.0000    0.0000 O   0  0  0  0  0  0  0  0  0  0  0  0
  1  2  1  0  0  0  0
  2  3  2  0  0  0  0
  2  4  1  0  0  0  0
  4  5  1  0  0  0  0
  5  6  1  0  0  0  0
  6  7  1  0  0  0  0
  7  8  1  0  0  0  0
  7  9  2  0  0  0  0
  5 10  1  0  0  0  0
  5 11  1  0  0  0  0
 11 12  1  0  0  0  0
 11 13  2  0  0  0  0
M  END
> <RowID>
185

> <Original_SMILES>
[Zn+2].[Zn+2].[Zn+2].[O-]C(=O)CC(O)(CC([O-])=O)C([O-])=O.[O-]C(=O)CC(O)(CC([O-])=O)C([O-])=O

> <Canonical_QSARr>
OC(=O)C(O)(CC(O)=O)CC(O)=O

> <InChI_Code_QSARr>
InChI=1S/C6H8O7/c7-3(8)1-6(13,5(11)12)2-4(9)10/h13H,1-2H2,(H,7,8)(H,9,10)(H,11,12)

> <InChI Key_QSARr>
KRKNYBCHXYNGOX-UHFFFAOYSA-N

> <Salt_Solvent>
[Zn+2]

> <Salt_Solvent_ID>
300

> <Number of connected components>
5

$$$$
Molecule_186
  Mrv2316 01072400032D          

 12 12  0  0  0  0            999 V2000
    0.3572   -2.6813    0.0000 O   0  0  0  0  0  0  0  0  0  0  0  0
    0.3572   -1.8563    0.0000 C   0  0  0  0  0  0  0  0  0  0  0  0
    1.0717   -1.4437    0.0000 C   0  0  0  0  0  0  0  0  0  0  0  0
    1.0717   -0.6188    0.0000 C   0  0  0  0  0  0  0  0  0  0  0  0
    0.3572   -0.2063    0.0000 C   0  0  0  0  0  0  0  0  0  0  0  0
    0.3572    0.6188    0.0000 C   0  0  0  0  0  0  0  0  0  0  0  0
    1.0717    1.0312    0.0000 C   0  0  0  0  0  0  0  0  0  0  0  0
    1.0717    1.8563    0.0000 O   0  0  0  0  0  0  0  0  0  0  0  0
    1.7862    0.6187    0.0000 O   0  0  0  0  0  0  0  0  0  0  0  0
   -0.3572    1.0312    0.0000 O   0  0  0  0  0  0  0  0  0  0  0  0
   -0.3572   -0.6188    0.0000 C   0  0  0  0  0  0  0  0  0  0  0  0
   -0.3572   -1.4437    0.0000 C   0  0  0  0  0  0  0  0  0  0  0  0
  1  2  1  0  0  0  0
  3  2  1  0  0  0  0
  4  3  2  0  0  0  0
  5  4  1  0  0  0  0
  5  6  1  0  0  0  0
  6  7  1  0  0  0  0
  7  8  2  0  0  0  0
  7  9  1  0  0  0  0
  6 10  1  0  0  0  0
 11  5  2  0  0  0  0
 12 11  1  0  0  0  0
  2 12  2  0  0  0  0
M  END
> <RowID>
186

> <Original_SMILES>
[Na+].[O-]C1C=CC(=CC=1)C(O)C(O)=O

> <Canonical_QSARr>
OC1C=CC(=CC=1)C(O)C(O)=O

> <InChI_Code_QSARr>
InChI=1S/C8H8O4/c9-6-3-1-5(2-4-6)7(10)8(11)12/h1-4,7,9-10H,(H,11,12)

> <InChI Key_QSARr>
YHXHKYRQLYQUIH-UHFFFAOYSA-N

> <Salt_Solvent>
[Na+]

> <Salt_Solvent_ID>
110

> <Number of connected components>
2

$$$$
Molecule_187
  Mrv2316 01072400032D          

 23 22  0  0  0  0            999 V2000
    1.3948   -1.9224    0.0000 C   0  0  0  0  0  0  0  0  0  0  0  0
    2.2050   -2.0783    0.0000 C   0  0  0  0  0  0  0  0  0  0  0  0
    2.4750   -2.8579    0.0000 O   0  0  0  0  0  0  0  0  0  0  0  0
    3.2851   -3.0138    0.0000 C   0  0  0  0  0  0  0  0  0  0  0  0
    3.8252   -2.3902    0.0000 O   0  0  0  0  0  0  0  0  0  0  0  0
    3.5552   -3.7933    0.0000 C   0  0  0  0  0  0  0  0  0  0  0  0
    4.3653   -3.9493    0.0000 C   0  0  0  0  0  0  0  0  0  0  0  0
    4.6354   -4.7288    0.0000 N   0  0  0  0  0  0  0  0  0  0  0  0
    5.4455   -4.8847    0.0000 C   0  0  0  0  0  0  0  0  0  0  0  0
    5.7155   -5.6643    0.0000 C   0  0  0  0  0  0  0  0  0  0  0  0
    6.5257   -5.8202    0.0000 C   0  0  0  0  0  0  0  0  0  0  0  0
    6.7957   -6.5997    0.0000 Si  0  0  0  0  0  0  0  0  0  0  0  0
    7.0658   -7.3793    0.0000 O   0  0  0  0  0  0  0  0  0  0  0  0
    7.8759   -7.5352    0.0000 C   0  0  0  0  0  0  0  0  0  0  0  0
    6.0162   -6.8698    0.0000 O   0  0  0  0  0  0  0  0  0  0  0  0
    5.8603   -7.6799    0.0000 C   0  0  0  0  0  0  0  0  0  0  0  0
    7.5753   -6.3297    0.0000 O   0  0  0  0  0  0  0  0  0  0  0  0
    8.1989   -6.8698    0.0000 C   0  0  0  0  0  0  0  0  0  0  0  0
    4.9054   -3.3256    0.0000 C   0  0  0  0  0  0  0  0  0  0  0  0
    4.6354   -2.5461    0.0000 O   0  0  0  0  0  0  0  0  0  0  0  0
    5.7155   -3.4815    0.0000 O   0  0  0  0  0  0  0  0  0  0  0  0
    6.2556   -2.8579    0.0000 C   0  0  0  0  0  0  0  0  0  0  0  0
    7.0658   -3.0138    0.0000 C   0  0  0  0  0  0  0  0  0  0  0  0
  1  2  1  0  0  0  0
  2  3  1  0  0  0  0
  3  4  1  0  0  0  0
  4  5  2  0  0  0  0
  4  6  1  0  0  0  0
  6  7  1  0  0  0  0
  7  8  1  0  0  0  0
  8  9  1  0  0  0  0
  9 10  1  0  0  0  0
 10 11  1  0  0  0  0
 11 12  1  0  0  0  0
 12 13  1  0  0  0  0
 13 14  1  0  0  0  0
 12 15  1  0  0  0  0
 15 16  1  0  0  0  0
 12 17  1  0  0  0  0
 17 18  1  0  0  0  0
  7 19  1  0  0  0  0
 19 20  2  0  0  0  0
 19 21  1  0  0  0  0
 21 22  1  0  0  0  0
 22 23  1  0  0  0  0
M  END
> <RowID>
187

> <Original_SMILES>
CCOC(=O)CC(NCCC[Si](OC)(OC)OC)C(=O)OCC

> <Canonical_QSARr>
CCOC(=O)CC(NCCC[Si](OC)(OC)OC)C(=O)OCC

> <InChI_Code_QSARr>
InChI=1S/C14H29NO7Si/c1-6-21-13(16)11-12(14(17)22-7-2)15-9-8-10-23(18-3,19-4)20-5/h12,15H,6-11H2,1-5H3

> <InChI Key_QSARr>
VSNLCLFPPHBFLV-UHFFFAOYSA-N

> <Salt_Solvent>


> <Salt_Solvent_ID>
0

> <Number of connected components>
1

$$$$
Molecule_188
  Mrv2316 01072400032D          

 18 18  0  0  0  0            999 V2000
    2.8486    1.6661    0.0000 F   0  0  0  0  0  0  0  0  0  0  0  0
    2.1341    1.2536    0.0000 C   0  0  0  0  0  0  0  0  0  0  0  0
    1.7216    1.9680    0.0000 F   0  0  0  0  0  0  0  0  0  0  0  0
    2.5466    0.5391    0.0000 F   0  0  0  0  0  0  0  0  0  0  0  0
    1.4197    0.8411    0.0000 N   0  0  0  0  0  0  0  0  0  0  0  0
    0.7052    1.2536    0.0000 C   0  0  0  0  0  0  0  0  0  0  0  0
    1.2355    1.8856    0.0000 F   0  0  0  0  0  0  0  0  0  0  0  0
    0.1749    1.8856    0.0000 F   0  0  0  0  0  0  0  0  0  0  0  0
   -0.0093    0.8411    0.0000 C   0  0  0  0  0  0  0  0  0  0  0  0
   -0.2914    1.6163    0.0000 F   0  0  0  0  0  0  0  0  0  0  0  0
   -0.8217    0.6978    0.0000 F   0  0  0  0  0  0  0  0  0  0  0  0
   -0.0093    0.0161    0.0000 O   0  0  0  0  0  0  0  0  0  0  0  0
    0.7052   -0.3964    0.0000 C   0  0  0  0  0  0  0  0  0  0  0  0
    0.1749   -1.0284    0.0000 F   0  0  0  0  0  0  0  0  0  0  0  0
    1.2355   -1.0284    0.0000 F   0  0  0  0  0  0  0  0  0  0  0  0
    1.4197    0.0161    0.0000 C   0  0  0  0  0  0  0  0  0  0  0  0
    1.8568   -0.6836    0.0000 F   0  0  0  0  0  0  0  0  0  0  0  0
    2.2442   -0.0127    0.0000 F   0  0  0  0  0  0  0  0  0  0  0  0
  1  2  1  0  0  0  0
  2  3  1  0  0  0  0
  2  4  1  0  0  0  0
  2  5  1  0  0  0  0
  6  5  1  0  0  0  0
  6  7  1  0  0  0  0
  6  8  1  0  0  0  0
  9  6  1  0  0  0  0
  9 10  1  0  0  0  0
  9 11  1  0  0  0  0
 12  9  1  0  0  0  0
 13 12  1  0  0  0  0
 13 14  1  0  0  0  0
 13 15  1  0  0  0  0
 16 13  1  0  0  0  0
  5 16  1  0  0  0  0
 16 17  1  0  0  0  0
 16 18  1  0  0  0  0
M  END
> <RowID>
188

> <Original_SMILES>
FC(F)(F)N1C(F)(F)C(F)(F)OC(F)(F)C1(F)F

> <Canonical_QSARr>
FC(F)(F)N1C(F)(F)C(F)(F)OC(F)(F)C1(F)F

> <InChI_Code_QSARr>
InChI=1S/C5F11NO/c6-1(7)3(10,11)18-4(12,13)2(8,9)17(1)5(14,15)16

> <InChI Key_QSARr>
PQMAKJUXOOVROI-UHFFFAOYSA-N

> <Salt_Solvent>


> <Salt_Solvent_ID>
0

> <Number of connected components>
1

$$$$
Molecule_190
  Mrv2316 01072400032D          

 17 19  0  0  0  0            999 V2000
    3.4990    2.8425    0.0000 O   0  0  0  0  0  0  0  0  0  0  0  0
    2.7845    3.2550    0.0000 C   0  0  0  0  0  0  0  0  0  0  0  0
    2.7845    4.0800    0.0000 O   0  0  0  0  0  0  0  0  0  0  0  0
    2.0701    2.8425    0.0000 C   0  0  0  0  0  0  0  0  0  0  0  0
    1.3556    3.2550    0.0000 C   0  0  0  0  0  0  0  0  0  0  0  0
    0.6411    2.8425    0.0000 C   0  0  0  0  0  0  0  0  0  0  0  0
   -0.1435    3.0974    0.0000 N   0  0  0  0  0  0  0  0  0  0  0  0
   -0.6284    2.4300    0.0000 C   0  0  0  0  0  0  0  0  0  0  0  0
   -0.1435    1.7625    0.0000 C   0  0  0  0  0  0  0  0  0  0  0  0
   -0.3984    0.9779    0.0000 C   0  0  0  0  0  0  0  0  0  0  0  0
   -1.1831    0.7230    0.0000 C   0  0  0  0  0  0  0  0  0  0  0  0
   -1.1831   -0.1020    0.0000 C   0  0  0  0  0  0  0  0  0  0  0  0
   -0.3984   -0.3570    0.0000 C   0  0  0  0  0  0  0  0  0  0  0  0
    0.0865    0.3105    0.0000 C   0  0  0  0  0  0  0  0  0  0  0  0
    0.6411    2.0175    0.0000 C   0  0  0  0  0  0  0  0  0  0  0  0
    1.3556    1.6050    0.0000 C   0  0  0  0  0  0  0  0  0  0  0  0
    2.0701    2.0175    0.0000 C   0  0  0  0  0  0  0  0  0  0  0  0
  1  2  1  0  0  0  0
  2  3  2  0  0  0  0
  2  4  1  0  0  0  0
  5  4  1  0  0  0  0
  6  5  2  0  0  0  0
  6  7  1  0  0  0  0
  7  8  1  0  0  0  0
  8  9  2  0  0  0  0
  9 10  1  0  0  0  0
 11 10  1  0  0  0  0
 12 11  1  0  0  0  0
 13 12  1  0  0  0  0
 14 13  1  0  0  0  0
 10 14  1  0  0  0  0
  9 15  1  0  0  0  0
 15  6  1  0  0  0  0
 16 15  2  0  0  0  0
 17 16  1  0  0  0  0
  4 17  2  0  0  0  0
M  END
> <RowID>
190

> <Original_SMILES>
OC(=O)C1C=C2NC=C(C3CCCC3)C2=CC=1

> <Canonical_QSARr>
OC(=O)C1C=C2NC=C(C3CCCC3)C2=CC=1

> <InChI_Code_QSARr>
InChI=1S/C14H15NO2/c16-14(17)10-5-6-11-12(8-15-13(11)7-10)9-3-1-2-4-9/h5-9,15H,1-4H2,(H,16,17)

> <InChI Key_QSARr>
VBNURQAEMRKPIT-UHFFFAOYSA-N

> <Salt_Solvent>


> <Salt_Solvent_ID>
0

> <Number of connected components>
1

$$$$
Molecule_191
  Mrv2316 01072400032D          

 14 13  0  0  0  0            999 V2000
    4.2355   -3.2704    0.0000 C   0  0  0  0  0  0  0  0  0  0  0  0
    4.9500   -2.8579    0.0000 C   0  0  0  0  0  0  0  0  0  0  0  0
    5.6645   -3.2704    0.0000 C   0  0  0  0  0  0  0  0  0  0  0  0
    6.3789   -2.8579    0.0000 C   0  0  0  0  0  0  0  0  0  0  0  0
    7.0934   -3.2704    0.0000 C   0  0  0  0  0  0  0  0  0  0  0  0
    7.8079   -2.8579    0.0000 C   0  0  0  0  0  0  0  0  0  0  0  0
    8.5224   -3.2704    0.0000 O   0  0  0  0  0  0  0  0  0  0  0  0
    9.2368   -2.8579    0.0000 C   0  0  0  0  0  0  0  0  0  0  0  0
    9.2368   -2.0329    0.0000 O   0  0  0  0  0  0  0  0  0  0  0  0
    9.9513   -3.2704    0.0000 C   0  0  0  0  0  0  0  0  0  0  0  0
   10.6658   -2.8579    0.0000 C   0  0  0  0  0  0  0  0  0  0  0  0
   11.3802   -2.4454    0.0000 N   0  0  0  0  0  0  0  0  0  0  0  0
    7.0934   -4.0954    0.0000 C   0  0  0  0  0  0  0  0  0  0  0  0
    7.8079   -4.5079    0.0000 C   0  0  0  0  0  0  0  0  0  0  0  0
  1  2  1  0  0  0  0
  2  3  1  0  0  0  0
  3  4  1  0  0  0  0
  4  5  1  0  0  0  0
  5  6  1  0  0  0  0
  6  7  1  0  0  0  0
  7  8  1  0  0  0  0
  8  9  2  0  0  0  0
  8 10  1  0  0  0  0
 10 11  1  0  0  0  0
 11 12  3  0  0  0  0
  5 13  1  0  0  0  0
 13 14  1  0  0  0  0
M  END
> <RowID>
191

> <Original_SMILES>
CCCCC(COC(=O)CC#N)CC

> <Canonical_QSARr>
CCCCC(COC(=O)CC#N)CC

> <InChI_Code_QSARr>
InChI=1S/C11H19NO2/c1-3-5-6-10(4-2)9-14-11(13)7-8-12/h10H,3-7,9H2,1-2H3

> <InChI Key_QSARr>
ZNYBQVBNSXLZNI-UHFFFAOYSA-N

> <Salt_Solvent>


> <Salt_Solvent_ID>
0

> <Number of connected components>
1

$$$$
Molecule_192
  Mrv2316 01072400032D          

 28 27  0  0  0  0            999 V2000
   12.1851    7.8598    0.0000 C   0  0  0  0  0  0  0  0  0  0  0  0
   12.8996    8.2723    0.0000 C   0  0  0  0  0  0  0  0  0  0  0  0
   12.8996    9.0973    0.0000 C   0  0  0  0  0  0  0  0  0  0  0  0
   13.6140    7.8598    0.0000 C   0  0  0  0  0  0  0  0  0  0  0  0
   13.6140    7.0348    0.0000 O   0  0  0  0  0  0  0  0  0  0  0  0
   14.3285    8.2723    0.0000 O   0  0  0  0  0  0  0  0  0  0  0  0
   15.0430    7.8598    0.0000 C   0  0  0  0  0  0  0  0  0  0  0  0
   15.7574    8.2723    0.0000 C   0  0  0  0  0  0  0  0  0  0  0  0
   16.4719    7.8598    0.0000 C   0  0  0  0  0  0  0  0  0  0  0  0
   17.1864    8.2723    0.0000 C   0  0  0  0  0  0  0  0  0  0  0  0
   17.9009    7.8598    0.0000 C   0  0  0  0  0  0  0  0  0  0  0  0
   18.6153    8.2723    0.0000 C   0  0  0  0  0  0  0  0  0  0  0  0
   19.3298    7.8598    0.0000 C   0  0  0  0  0  0  0  0  0  0  0  0
   20.0443    8.2723    0.0000 C   0  0  0  0  0  0  0  0  0  0  0  0
   20.7587    7.8598    0.0000 C   0  0  0  0  0  0  0  0  0  0  0  0
   21.4732    8.2723    0.0000 C   0  0  0  0  0  0  0  0  0  0  0  0
   22.1877    7.8598    0.0000 C   0  0  0  0  0  0  0  0  0  0  0  0
   22.9021    8.2723    0.0000 C   0  0  0  0  0  0  0  0  0  0  0  0
   23.6166    7.8598    0.0000 C   0  0  0  0  0  0  0  0  0  0  0  0
   24.3311    8.2723    0.0000 C   0  0  0  0  0  0  0  0  0  0  0  0
   25.0456    7.8598    0.0000 C   0  0  0  0  0  0  0  0  0  0  0  0
   25.7600    8.2723    0.0000 C   0  0  0  0  0  0  0  0  0  0  0  0
   26.4745    7.8598    0.0000 C   0  0  0  0  0  0  0  0  0  0  0  0
   27.1890    8.2723    0.0000 C   0  0  0  0  0  0  0  0  0  0  0  0
   27.9034    7.8598    0.0000 C   0  0  0  0  0  0  0  0  0  0  0  0
   28.6179    8.2723    0.0000 C   0  0  0  0  0  0  0  0  0  0  0  0
   29.3324    7.8598    0.0000 C   0  0  0  0  0  0  0  0  0  0  0  0
   30.0469    8.2723    0.0000 C   0  0  0  0  0  0  0  0  0  0  0  0
  1  2  1  0  0  0  0
  2  3  2  0  0  0  0
  2  4  1  0  0  0  0
  4  5  2  0  0  0  0
  4  6  1  0  0  0  0
  6  7  1  0  0  0  0
  7  8  1  0  0  0  0
  8  9  1  0  0  0  0
  9 10  1  0  0  0  0
 10 11  1  0  0  0  0
 11 12  1  0  0  0  0
 12 13  1  0  0  0  0
 13 14  1  0  0  0  0
 14 15  1  0  0  0  0
 15 16  1  0  0  0  0
 16 17  1  0  0  0  0
 17 18  1  0  0  0  0
 18 19  1  0  0  0  0
 19 20  1  0  0  0  0
 20 21  1  0  0  0  0
 21 22  1  0  0  0  0
 22 23  1  0  0  0  0
 23 24  1  0  0  0  0
 24 25  1  0  0  0  0
 25 26  1  0  0  0  0
 26 27  1  0  0  0  0
 27 28  1  0  0  0  0
M  END
> <RowID>
192

> <Original_SMILES>
CC(=C)C(=O)OCCCCCCCCCCCCCCCCCCCCCC

> <Canonical_QSARr>
CC(=C)C(=O)OCCCCCCCCCCCCCCCCCCCCCC

> <InChI_Code_QSARr>
InChI=1S/C26H50O2/c1-4-5-6-7-8-9-10-11-12-13-14-15-16-17-18-19-20-21-22-23-24-28-26(27)25(2)3/h2,4-24H2,1,3H3

> <InChI Key_QSARr>
OCDWICPYKQMQSQ-UHFFFAOYSA-N

> <Salt_Solvent>


> <Salt_Solvent_ID>
0

> <Number of connected components>
1

$$$$
Molecule_193
  Mrv2316 01072400032D          

 16 15  0  0  0  0            999 V2000
    6.5704    4.6184    0.0000 C   0  0  0  0  0  0  0  0  0  0  0  0
    6.5704    3.7934    0.0000 C   0  0  0  0  0  0  0  0  0  0  0  0
    7.2849    3.3809    0.0000 O   0  0  0  0  0  0  0  0  0  0  0  0
    5.8559    3.3809    0.0000 C   0  0  0  0  0  0  0  0  0  0  0  0
    5.8559    2.5559    0.0000 C   0  0  0  0  0  0  0  0  0  0  0  0
    5.1415    2.1434    0.0000 C   0  0  0  0  0  0  0  0  0  0  0  0
    4.4270    2.5559    0.0000 C   0  0  0  0  0  0  0  0  0  0  0  0
    4.4270    3.3809    0.0000 O   0  0  0  0  0  0  0  0  0  0  0  0
    3.7125    2.1434    0.0000 O   0  0  0  0  0  0  0  0  0  0  0  0
    2.9980    2.5559    0.0000 C   0  0  0  0  0  0  0  0  0  0  0  0
    2.2836    2.1434    0.0000 C   0  0  0  0  0  0  0  0  0  0  0  0
    6.5704    2.1434    0.0000 C   0  0  0  0  0  0  0  0  0  0  0  0
    6.5704    1.3184    0.0000 O   0  0  0  0  0  0  0  0  0  0  0  0
    7.2849    2.5559    0.0000 O   0  0  0  0  0  0  0  0  0  0  0  0
    7.9993    2.1434    0.0000 C   0  0  0  0  0  0  0  0  0  0  0  0
    8.7138    2.5559    0.0000 C   0  0  0  0  0  0  0  0  0  0  0  0
  1  2  1  0  0  0  0
  2  3  2  0  0  0  0
  2  4  1  0  0  0  0
  4  5  1  0  0  0  0
  5  6  1  0  0  0  0
  6  7  1  0  0  0  0
  7  8  2  0  0  0  0
  7  9  1  0  0  0  0
  9 10  1  0  0  0  0
 10 11  1  0  0  0  0
  5 12  1  0  0  0  0
 12 13  2  0  0  0  0
 12 14  1  0  0  0  0
 14 15  1  0  0  0  0
 15 16  1  0  0  0  0
M  END
> <RowID>
193

> <Original_SMILES>
CC(=O)CC(CC(=O)OCC)C(=O)OCC

> <Canonical_QSARr>
CC(=O)CC(CC(=O)OCC)C(=O)OCC

> <InChI_Code_QSARr>
InChI=1S/C11H18O5/c1-4-15-10(13)7-9(6-8(3)12)11(14)16-5-2/h9H,4-7H2,1-3H3

> <InChI Key_QSARr>
AAPVOVKOHNCXJA-UHFFFAOYSA-N

> <Salt_Solvent>


> <Salt_Solvent_ID>
0

> <Number of connected components>
1

$$$$
Molecule_194
  Mrv2316 01072400032D          

 15 15  0  0  0  0            999 V2000
   -0.4763   -3.7400    0.0000 O   0  0  0  0  0  0  0  0  0  0  0  0
   -0.4763   -2.9150    0.0000 C   0  0  0  0  0  0  0  0  0  0  0  0
    0.2382   -2.5025    0.0000 C   0  0  0  0  0  0  0  0  0  0  0  0
    0.2382   -1.6775    0.0000 N   0  0  0  0  0  0  0  0  0  0  0  0
    0.9526   -1.2650    0.0000 C   0  0  0  0  0  0  0  0  0  0  0  0
    0.9526   -0.4400    0.0000 C   0  0  0  0  0  0  0  0  0  0  0  0
    0.2382   -0.0275    0.0000 N   0  0  0  0  0  0  0  0  0  0  0  0
    0.2382    0.7975    0.0000 C   0  0  0  0  0  0  0  0  0  0  0  0
    0.9526    1.2100    0.0000 C   0  0  0  0  0  0  0  0  0  0  0  0
    0.9526    2.0350    0.0000 S   0  0  0  0  0  0  0  0  0  0  0  0
    0.9526    2.8600    0.0000 O   0  0  0  0  0  0  0  0  0  0  0  0
    1.7776    2.0350    0.0000 O   0  0  0  0  0  0  0  0  0  0  0  0
    0.1276    2.0350    0.0000 O   0  0  0  0  0  0  0  0  0  0  0  0
   -0.4763   -0.4400    0.0000 C   0  0  0  0  0  0  0  0  0  0  0  0
   -0.4763   -1.2650    0.0000 C   0  0  0  0  0  0  0  0  0  0  0  0
  1  2  1  0  0  0  0
  2  3  1  0  0  0  0
  3  4  1  0  0  0  0
  5  4  1  0  0  0  0
  6  5  1  0  0  0  0
  7  6  1  0  0  0  0
  7  8  1  0  0  0  0
  8  9  1  0  0  0  0
  9 10  1  0  0  0  0
 10 11  1  0  0  0  0
 10 12  2  0  0  0  0
 10 13  2  0  0  0  0
 14  7  1  0  0  0  0
 15 14  1  0  0  0  0
  4 15  1  0  0  0  0
M  END
> <RowID>
194

> <Original_SMILES>
OCCN1CCN(CCS(O)(=O)=O)CC1

> <Canonical_QSARr>
OCCN1CCN(CCS(O)(=O)=O)CC1

> <InChI_Code_QSARr>
InChI=1S/C8H18N2O4S/c11-7-5-9-1-3-10(4-2-9)6-8-15(12,13)14/h11H,1-8H2,(H,12,13,14)

> <InChI Key_QSARr>
JKMHFZQWWAIEOD-UHFFFAOYSA-N

> <Salt_Solvent>


> <Salt_Solvent_ID>
0

> <Number of connected components>
1

$$$$
Molecule_195
  Mrv2316 01072400032D          

 22 24  0  0  0  0            999 V2000
    4.9280    2.2418    0.0000 C   0  0  0  0  0  0  0  0  0  0  0  0
    4.2135    2.6543    0.0000 C   0  0  0  0  0  0  0  0  0  0  0  0
    4.2135    3.4793    0.0000 C   0  0  0  0  0  0  0  0  0  0  0  0
    3.4990    2.2418    0.0000 O   0  0  0  0  0  0  0  0  0  0  0  0
    2.7845    2.6543    0.0000 C   0  0  0  0  0  0  0  0  0  0  0  0
    2.7845    3.4793    0.0000 O   0  0  0  0  0  0  0  0  0  0  0  0
    2.0701    2.2418    0.0000 C   0  0  0  0  0  0  0  0  0  0  0  0
    1.3556    2.6543    0.0000 C   0  0  0  0  0  0  0  0  0  0  0  0
    0.6411    2.2418    0.0000 C   0  0  0  0  0  0  0  0  0  0  0  0
    0.6411    1.4168    0.0000 C   0  0  0  0  0  0  0  0  0  0  0  0
   -0.1435    1.1619    0.0000 C   0  0  0  0  0  0  0  0  0  0  0  0
   -0.3984    0.3773    0.0000 C   0  0  0  0  0  0  0  0  0  0  0  0
   -1.1831    0.1223    0.0000 C   0  0  0  0  0  0  0  0  0  0  0  0
   -1.1831   -0.7027    0.0000 C   0  0  0  0  0  0  0  0  0  0  0  0
   -0.3984   -0.9576    0.0000 C   0  0  0  0  0  0  0  0  0  0  0  0
    0.0865   -0.2902    0.0000 C   0  0  0  0  0  0  0  0  0  0  0  0
   -0.6284    1.8293    0.0000 C   0  0  0  0  0  0  0  0  0  0  0  0
   -1.4534    1.8293    0.0000 Br  0  0  0  0  0  0  0  0  0  0  0  0
   -0.1435    2.4968    0.0000 N   0  0  0  0  0  0  0  0  0  0  0  0
   -0.3984    3.2814    0.0000 C   0  0  0  0  0  0  0  0  0  0  0  0
    1.3556    1.0043    0.0000 C   0  0  0  0  0  0  0  0  0  0  0  0
    2.0701    1.4168    0.0000 C   0  0  0  0  0  0  0  0  0  0  0  0
  1  2  1  0  0  0  0
  2  3  1  0  0  0  0
  2  4  1  0  0  0  0
  4  5  1  0  0  0  0
  5  6  2  0  0  0  0
  5  7  1  0  0  0  0
  8  7  1  0  0  0  0
  9  8  2  0  0  0  0
  9 10  1  0  0  0  0
 10 11  1  0  0  0  0
 11 12  1  0  0  0  0
 13 12  1  0  0  0  0
 14 13  1  0  0  0  0
 15 14  1  0  0  0  0
 16 15  1  0  0  0  0
 12 16  1  0  0  0  0
 11 17  2  0  0  0  0
 17 18  1  0  0  0  0
 17 19  1  0  0  0  0
 19  9  1  0  0  0  0
 19 20  1  0  0  0  0
 21 10  2  0  0  0  0
 22 21  1  0  0  0  0
  7 22  2  0  0  0  0
M  END
> <RowID>
195

> <Original_SMILES>
CC(C)OC(=O)C1C=C2C(=CC=1)C(C1CCCC1)=C(Br)N2C

> <Canonical_QSARr>
CC(C)OC(=O)C1C=C2C(=CC=1)C(C1CCCC1)=C(Br)N2C

> <InChI_Code_QSARr>
InChI=1S/C18H22BrNO2/c1-11(2)22-18(21)13-8-9-14-15(10-13)20(3)17(19)16(14)12-6-4-5-7-12/h8-12H,4-7H2,1-3H3

> <InChI Key_QSARr>
XUTOSRNXJXEXFW-UHFFFAOYSA-N

> <Salt_Solvent>


> <Salt_Solvent_ID>
0

> <Number of connected components>
1

$$$$
Molecule_196
  Mrv2316 01072400032D          

 12 12  0  0  0  0            999 V2000
    2.3816   -0.8250    0.0000 C   0  0  0  0  0  0  0  0  0  0  0  0
    1.6671   -0.4125    0.0000 C   0  0  0  0  0  0  0  0  0  0  0  0
    1.6671    0.4125    0.0000 C   0  0  0  0  0  0  0  0  0  0  0  0
    0.9526    0.8250    0.0000 C   0  0  0  0  0  0  0  0  0  0  0  0
    0.9526    1.6500    0.0000 C   0  0  0  0  0  0  0  0  0  0  0  0
    1.6671    2.0625    0.0000 C   0  0  0  0  0  0  0  0  0  0  0  0
    0.2382    0.4125    0.0000 C   0  0  0  0  0  0  0  0  0  0  0  0
   -0.4763    0.8250    0.0000 N   0  0  0  0  0  0  0  0  0  0  0  0
    0.2382   -0.4125    0.0000 C   0  0  0  0  0  0  0  0  0  0  0  0
   -0.4763   -0.8250    0.0000 C   0  0  0  0  0  0  0  0  0  0  0  0
   -0.4763   -1.6500    0.0000 C   0  0  0  0  0  0  0  0  0  0  0  0
    0.9526   -0.8250    0.0000 C   0  0  0  0  0  0  0  0  0  0  0  0
  1  2  1  0  0  0  0
  3  2  1  0  0  0  0
  4  3  2  0  0  0  0
  4  5  1  0  0  0  0
  5  6  1  0  0  0  0
  7  4  1  0  0  0  0
  7  8  1  0  0  0  0
  9  7  2  0  0  0  0
  9 10  1  0  0  0  0
 10 11  1  0  0  0  0
 12  9  1  0  0  0  0
  2 12  2  0  0  0  0
M  END
> <RowID>
196

> <Original_SMILES>
CC1C=C(CC)C(N)=C(CC)C=1

> <Canonical_QSARr>
CC1C=C(CC)C(N)=C(CC)C=1

> <InChI_Code_QSARr>
InChI=1S/C11H17N/c1-4-9-6-8(3)7-10(5-2)11(9)12/h6-7H,4-5,12H2,1-3H3

> <InChI Key_QSARr>
OIXUMNZGNCAOKY-UHFFFAOYSA-N

> <Salt_Solvent>


> <Salt_Solvent_ID>
0

> <Number of connected components>
1

$$$$
Molecule_197
  Mrv2316 01072400032D          

  9  9  0  0  0  0            999 V2000
    2.1434   -0.4125    0.0000 C   0  0  0  0  0  0  0  0  0  0  0  0
    1.4289   -0.0000    0.0000 C   0  0  0  0  0  0  0  0  0  0  0  0
    1.4289    0.8250    0.0000 N   0  0  0  0  0  0  0  0  0  0  0  0
    0.7145    1.2375    0.0000 C   0  0  0  0  0  0  0  0  0  0  0  0
    0.7145    2.0625    0.0000 N   0  0  0  0  0  0  0  0  0  0  0  0
   -0.0000    0.8250    0.0000 N   0  0  0  0  0  0  0  0  0  0  0  0
   -0.0000    0.0000    0.0000 C   0  0  0  0  0  0  0  0  0  0  0  0
   -0.7145   -0.4125    0.0000 N   0  0  0  0  0  0  0  0  0  0  0  0
    0.7145   -0.4125    0.0000 N   0  0  0  0  0  0  0  0  0  0  0  0
  1  2  1  0  0  0  0
  3  2  1  0  0  0  0
  4  3  2  0  0  0  0
  4  5  1  0  0  0  0
  6  4  1  0  0  0  0
  7  6  2  0  0  0  0
  7  8  1  0  0  0  0
  9  7  1  0  0  0  0
  2  9  2  0  0  0  0
M  END
> <RowID>
197

> <Original_SMILES>
CC1N=C(N)N=C(N)N=1

> <Canonical_QSARr>
CC1N=C(N)N=C(N)N=1

> <InChI_Code_QSARr>
InChI=1S/C4H7N5/c1-2-7-3(5)9-4(6)8-2/h1H3,(H4,5,6,7,8,9)

> <InChI Key_QSARr>
NJYZCEFQAIUHSD-UHFFFAOYSA-N

> <Salt_Solvent>


> <Salt_Solvent_ID>
0

> <Number of connected components>
1

$$$$
Molecule_198
  Mrv2316 01072400032D          

 14 14  0  0  0  0            999 V2000
    2.7558   -1.7679    0.0000 C   0  0  0  0  0  0  0  0  0  0  0  0
    2.7558   -0.9429    0.0000 C   0  0  0  0  0  0  0  0  0  0  0  0
    3.4703   -0.5304    0.0000 C   0  0  0  0  0  0  0  0  0  0  0  0
    2.0413   -0.5304    0.0000 C   0  0  0  0  0  0  0  0  0  0  0  0
    2.0413    0.2946    0.0000 C   0  0  0  0  0  0  0  0  0  0  0  0
    1.3269    0.7071    0.0000 C   0  0  0  0  0  0  0  0  0  0  0  0
    1.3269    1.5321    0.0000 C   0  0  0  0  0  0  0  0  0  0  0  0
    2.0413    1.9446    0.0000 C   0  0  0  0  0  0  0  0  0  0  0  0
    0.6124    1.9446    0.0000 C   0  0  0  0  0  0  0  0  0  0  0  0
    0.6124    2.7696    0.0000 C   0  0  0  0  0  0  0  0  0  0  0  0
   -0.1021    3.1821    0.0000 O   0  0  0  0  0  0  0  0  0  0  0  0
    0.6124    0.2946    0.0000 C   0  0  0  0  0  0  0  0  0  0  0  0
    0.6124   -0.5304    0.0000 C   0  0  0  0  0  0  0  0  0  0  0  0
    1.3269   -0.9429    0.0000 C   0  0  0  0  0  0  0  0  0  0  0  0
  1  2  1  0  0  0  0
  2  3  1  0  0  0  0
  2  4  1  0  0  0  0
  5  4  2  0  0  0  0
  6  5  1  0  0  0  0
  6  7  1  0  0  0  0
  7  8  1  0  0  0  0
  7  9  1  0  0  0  0
  9 10  1  0  0  0  0
 10 11  2  0  0  0  0
 12  6  2  0  0  0  0
 13 12  1  0  0  0  0
 14 13  2  0  0  0  0
  4 14  1  0  0  0  0
M  END
> <RowID>
198

> <Original_SMILES>
CC(C)C1=CC(=CC=C1)C(C)CC=O

> <Canonical_QSARr>
CC(C)C1=CC(=CC=C1)C(C)CC=O

> <InChI_Code_QSARr>
InChI=1S/C13H18O/c1-10(2)12-5-4-6-13(9-12)11(3)7-8-14/h4-6,8-11H,7H2,1-3H3

> <InChI Key_QSARr>
OHRBQTOZYGEWCJ-UHFFFAOYSA-N

> <Salt_Solvent>


> <Salt_Solvent_ID>
0

> <Number of connected components>
1

$$$$
Molecule_199
  Mrv2316 01072400032D          

  4  3  0  0  0  0            999 V2000
    1.2375    0.7145    0.0000 C   0  0  0  0  0  0  0  0  0  0  0  0
    0.8250   -0.0000    0.0000 C   0  0  0  0  0  0  0  0  0  0  0  0
    1.2375   -0.7145    0.0000 O   0  0  0  0  0  0  0  0  0  0  0  0
    0.0000   -0.0000    0.0000 C   0  0  0  0  0  0  0  0  0  0  0  0
  1  2  1  0  0  0  0
  2  3  1  0  0  0  0
  2  4  1  0  0  0  0
M  END
> <RowID>
199

> <Original_SMILES>
[MgH2].CC(C)O.CC(C)O

> <Canonical_QSARr>
CC(C)O

> <InChI_Code_QSARr>
InChI=1S/C3H8O/c1-3(2)4/h3-4H,1-2H3

> <InChI Key_QSARr>
KFZMGEQAYNKOFK-UHFFFAOYSA-N

> <Salt_Solvent>
[MgH2]

> <Salt_Solvent_ID>
120

> <Number of connected components>
3

$$$$
Molecule_200
  Mrv2316 01072400032D          

 45 44  0  0  0  0            999 V2000
   15.2842    3.0493    0.0000 C   0  0  0  0  0  0  0  0  0  0  0  0
   14.5697    3.4618    0.0000 C   0  0  0  0  0  0  0  0  0  0  0  0
   13.8553    3.0493    0.0000 C   0  0  0  0  0  0  0  0  0  0  0  0
   13.8553    2.2243    0.0000 C   0  0  0  0  0  0  0  0  0  0  0  0
   13.0303    2.2243    0.0000 C   0  0  0  0  0  0  0  0  0  0  0  0
   14.6803    2.2243    0.0000 C   0  0  0  0  0  0  0  0  0  0  0  0
   13.8553    1.3993    0.0000 C   0  0  0  0  0  0  0  0  0  0  0  0
   14.5697    4.2868    0.0000 C   0  0  0  0  0  0  0  0  0  0  0  0
   13.8553    4.6993    0.0000 C   0  0  0  0  0  0  0  0  0  0  0  0
   13.1408    4.2868    0.0000 O   0  0  0  0  0  0  0  0  0  0  0  0
   12.4263    4.6993    0.0000 C   0  0  0  0  0  0  0  0  0  0  0  0
   12.4263    5.5243    0.0000 O   0  0  0  0  0  0  0  0  0  0  0  0
   11.7119    4.2868    0.0000 C   0  0  0  0  0  0  0  0  0  0  0  0
   11.7119    3.4618    0.0000 O   0  0  0  0  0  0  0  0  0  0  0  0
   10.9974    4.6993    0.0000 C   0  0  0  0  0  0  0  0  0  0  0  0
   10.2829    4.2868    0.0000 C   0  0  0  0  0  0  0  0  0  0  0  0
   10.2829    3.4618    0.0000 O   0  0  0  0  0  0  0  0  0  0  0  0
    9.5684    4.6993    0.0000 O   0  0  0  0  0  0  0  0  0  0  0  0
    8.8540    4.2868    0.0000 C   0  0  0  0  0  0  0  0  0  0  0  0
    8.1395    4.6993    0.0000 C   0  0  0  0  0  0  0  0  0  0  0  0
    7.4250    4.2868    0.0000 C   0  0  0  0  0  0  0  0  0  0  0  0
    6.7106    4.6993    0.0000 C   0  0  0  0  0  0  0  0  0  0  0  0
    5.9961    4.2868    0.0000 C   0  0  0  0  0  0  0  0  0  0  0  0
    5.9961    3.4618    0.0000 C   0  0  0  0  0  0  0  0  0  0  0  0
    5.2816    4.6993    0.0000 C   0  0  0  0  0  0  0  0  0  0  0  0
    4.5671    4.2868    0.0000 C   0  0  0  0  0  0  0  0  0  0  0  0
    3.8527    3.8743    0.0000 C   0  0  0  0  0  0  0  0  0  0  0  0
    4.9796    3.5723    0.0000 C   0  0  0  0  0  0  0  0  0  0  0  0
    4.1546    5.0013    0.0000 C   0  0  0  0  0  0  0  0  0  0  0  0
    8.1395    5.5243    0.0000 C   0  0  0  0  0  0  0  0  0  0  0  0
    7.4250    5.9368    0.0000 C   0  0  0  0  0  0  0  0  0  0  0  0
    8.8540    5.9368    0.0000 C   0  0  0  0  0  0  0  0  0  0  0  0
    8.8540    6.7618    0.0000 C   0  0  0  0  0  0  0  0  0  0  0  0
    9.6790    6.7618    0.0000 C   0  0  0  0  0  0  0  0  0  0  0  0
    8.0290    6.7618    0.0000 C   0  0  0  0  0  0  0  0  0  0  0  0
    8.8540    7.5868    0.0000 C   0  0  0  0  0  0  0  0  0  0  0  0
   15.2842    4.6993    0.0000 C   0  0  0  0  0  0  0  0  0  0  0  0
   15.9987    4.2868    0.0000 C   0  0  0  0  0  0  0  0  0  0  0  0
   16.7132    4.6993    0.0000 C   0  0  0  0  0  0  0  0  0  0  0  0
   16.7132    5.5243    0.0000 C   0  0  0  0  0  0  0  0  0  0  0  0
   17.4276    4.2868    0.0000 C   0  0  0  0  0  0  0  0  0  0  0  0
   18.1421    4.6993    0.0000 C   0  0  0  0  0  0  0  0  0  0  0  0
   18.8566    5.1118    0.0000 C   0  0  0  0  0  0  0  0  0  0  0  0
   18.5546    3.9848    0.0000 C   0  0  0  0  0  0  0  0  0  0  0  0
   17.7296    5.4138    0.0000 C   0  0  0  0  0  0  0  0  0  0  0  0
  1  2  1  0  0  0  0
  2  3  1  0  0  0  0
  3  4  1  0  0  0  0
  4  5  1  0  0  0  0
  4  6  1  0  0  0  0
  4  7  1  0  0  0  0
  2  8  1  0  0  0  0
  8  9  1  0  0  0  0
  9 10  1  0  0  0  0
 10 11  1  0  0  0  0
 11 12  2  0  0  0  0
 11 13  1  0  0  0  0
 13 14  1  0  0  0  0
 13 15  1  0  0  0  0
 15 16  1  0  0  0  0
 16 17  2  0  0  0  0
 16 18  1  0  0  0  0
 18 19  1  0  0  0  0
 19 20  1  0  0  0  0
 20 21  1  0  0  0  0
 21 22  1  0  0  0  0
 22 23  1  0  0  0  0
 23 24  1  0  0  0  0
 23 25  1  0  0  0  0
 25 26  1  0  0  0  0
 26 27  1  0  0  0  0
 26 28  1  0  0  0  0
 26 29  1  0  0  0  0
 20 30  1  0  0  0  0
 30 31  1  0  0  0  0
 30 32  1  0  0  0  0
 32 33  1  0  0  0  0
 33 34  1  0  0  0  0
 33 35  1  0  0  0  0
 33 36  1  0  0  0  0
  8 37  1  0  0  0  0
 37 38  1  0  0  0  0
 38 39  1  0  0  0  0
 39 40  1  0  0  0  0
 39 41  1  0  0  0  0
 41 42  1  0  0  0  0
 42 43  1  0  0  0  0
 42 44  1  0  0  0  0
 42 45  1  0  0  0  0
M  END
> <RowID>
200

> <Original_SMILES>
CC(CC(C)(C)C)C(COC(=O)C(O)CC(=O)OCC(CCC(C)CC(C)(C)C)C(C)CC(C)(C)C)CCC(C)CC(C)(C)C

> <Canonical_QSARr>
CC(CC(C)(C)C)C(COC(=O)C(O)CC(=O)OCC(CCC(C)CC(C)(C)C)C(C)CC(C)(C)C)CCC(C)CC(C)(C)C

> <InChI_Code_QSARr>
InChI=1S/C40H78O5/c1-28(22-37(5,6)7)17-19-32(30(3)24-39(11,12)13)26-44-35(42)21-34(41)36(43)45-27-33(31(4)25-40(14,15)16)20-18-29(2)23-38(8,9)10/h28-34,41H,17-27H2,1-16H3

> <InChI Key_QSARr>
ONKLPOGLHLITSO-UHFFFAOYSA-N

> <Salt_Solvent>


> <Salt_Solvent_ID>
0

> <Number of connected components>
1

$$$$
Molecule_201
  Mrv2316 01072400032D          

 58 63  0  0  0  0            999 V2000
   -3.4641    3.6455    0.0000 C   0  0  0  0  0  0  0  0  0  0  0  0
   -3.2092    2.8608    0.0000 O   0  0  0  0  0  0  0  0  0  0  0  0
   -2.4022    2.6893    0.0000 C   0  0  0  0  0  0  0  0  0  0  0  0
   -2.1473    1.9047    0.0000 C   0  0  0  0  0  0  0  0  0  0  0  0
   -1.3403    1.7332    0.0000 C   0  0  0  0  0  0  0  0  0  0  0  0
   -1.0853    0.9485    0.0000 C   0  0  0  0  0  0  0  0  0  0  0  0
   -1.6374    0.3355    0.0000 O   0  0  0  0  0  0  0  0  0  0  0  0
   -0.2784    0.7770    0.0000 O   0  0  0  0  0  0  0  0  0  0  0  0
   -0.0234   -0.0076    0.0000 C   0  0  0  0  0  0  0  0  0  0  0  0
   -0.5084   -0.6750    0.0000 C   0  0  0  0  0  0  0  0  0  0  0  0
   -0.0234   -1.3425    0.0000 O   0  0  0  0  0  0  0  0  0  0  0  0
    0.7612   -1.0875    0.0000 C   0  0  0  0  0  0  0  0  0  0  0  0
    0.7612   -0.2625    0.0000 C   0  0  0  0  0  0  0  0  0  0  0  0
    1.5458   -0.0076    0.0000 O   0  0  0  0  0  0  0  0  0  0  0  0
    2.0307   -0.6750    0.0000 C   0  0  0  0  0  0  0  0  0  0  0  0
    1.5458   -1.3425    0.0000 C   0  0  0  0  0  0  0  0  0  0  0  0
    1.8008   -2.1271    0.0000 O   0  0  0  0  0  0  0  0  0  0  0  0
    2.6077   -2.2986    0.0000 C   0  0  0  0  0  0  0  0  0  0  0  0
    3.1598   -1.6855    0.0000 O   0  0  0  0  0  0  0  0  0  0  0  0
    2.8627   -3.0833    0.0000 C   0  0  0  0  0  0  0  0  0  0  0  0
    2.3106   -3.6963    0.0000 C   0  0  0  0  0  0  0  0  0  0  0  0
    2.5656   -4.4810    0.0000 C   0  0  0  0  0  0  0  0  0  0  0  0
    2.0135   -5.0941    0.0000 O   0  0  0  0  0  0  0  0  0  0  0  0
    2.2685   -5.8787    0.0000 C   0  0  0  0  0  0  0  0  0  0  0  0
    3.3725   -4.6525    0.0000 C   0  0  0  0  0  0  0  0  0  0  0  0
    3.6275   -5.4371    0.0000 O   0  0  0  0  0  0  0  0  0  0  0  0
    4.4345   -5.6086    0.0000 C   0  0  0  0  0  0  0  0  0  0  0  0
    4.9865   -4.9955    0.0000 O   0  0  0  0  0  0  0  0  0  0  0  0
    4.6894   -6.3933    0.0000 C   0  0  0  0  0  0  0  0  0  0  0  0
    4.1374   -7.0064    0.0000 C   0  0  0  0  0  0  0  0  0  0  0  0
    4.3923   -7.7910    0.0000 C   0  0  0  0  0  0  0  0  0  0  0  0
    5.1993   -7.9625    0.0000 C   0  0  0  0  0  0  0  0  0  0  0  0
    5.4542   -8.7471    0.0000 O   0  0  0  0  0  0  0  0  0  0  0  0
    6.2612   -8.9187    0.0000 C   0  0  0  0  0  0  0  0  0  0  0  0
    6.8132   -8.3056    0.0000 O   0  0  0  0  0  0  0  0  0  0  0  0
    6.5161   -9.7033    0.0000 C   0  0  0  0  0  0  0  0  0  0  0  0
    7.3231   -9.8748    0.0000 C   0  0  0  0  0  0  0  0  0  0  0  0
    5.7513   -7.3494    0.0000 C   0  0  0  0  0  0  0  0  0  0  0  0
    5.4964   -6.5648    0.0000 C   0  0  0  0  0  0  0  0  0  0  0  0
    3.9246   -4.0394    0.0000 C   0  0  0  0  0  0  0  0  0  0  0  0
    3.6696   -3.2548    0.0000 C   0  0  0  0  0  0  0  0  0  0  0  0
   -0.7882    2.3463    0.0000 C   0  0  0  0  0  0  0  0  0  0  0  0
   -1.0432    3.1309    0.0000 C   0  0  0  0  0  0  0  0  0  0  0  0
   -1.8502    3.3024    0.0000 C   0  0  0  0  0  0  0  0  0  0  0  0
   -2.1051    4.0870    0.0000 O   0  0  0  0  0  0  0  0  0  0  0  0
   -1.5531    4.7001    0.0000 C   0  0  0  0  0  0  0  0  0  0  0  0
   -0.7461    4.5286    0.0000 O   0  0  0  0  0  0  0  0  0  0  0  0
   -1.8080    5.4847    0.0000 C   0  0  0  0  0  0  0  0  0  0  0  0
   -1.2560    6.0978    0.0000 C   0  0  0  0  0  0  0  0  0  0  0  0
   -1.5109    6.8825    0.0000 C   0  0  0  0  0  0  0  0  0  0  0  0
   -2.3179    7.0540    0.0000 C   0  0  0  0  0  0  0  0  0  0  0  0
   -2.5728    7.8386    0.0000 O   0  0  0  0  0  0  0  0  0  0  0  0
   -3.3798    8.0101    0.0000 C   0  0  0  0  0  0  0  0  0  0  0  0
   -3.9318    7.3970    0.0000 O   0  0  0  0  0  0  0  0  0  0  0  0
   -3.6347    8.7948    0.0000 C   0  0  0  0  0  0  0  0  0  0  0  0
   -4.4417    8.9663    0.0000 C   0  0  0  0  0  0  0  0  0  0  0  0
   -2.8699    6.4409    0.0000 C   0  0  0  0  0  0  0  0  0  0  0  0
   -2.6150    5.6563    0.0000 C   0  0  0  0  0  0  0  0  0  0  0  0
  1  2  1  0  0  0  0
  2  3  1  0  0  0  0
  4  3  1  0  0  0  0
  5  4  2  0  0  0  0
  5  6  1  0  0  0  0
  6  7  2  0  0  0  0
  6  8  1  0  0  0  0
  8  9  1  0  0  0  0
 10  9  1  0  0  0  0
 11 10  1  0  0  0  0
 12 11  1  0  0  0  0
 12 13  1  0  0  0  0
  9 13  1  0  0  0  0
 13 14  1  0  0  0  0
 14 15  1  0  0  0  0
 15 16  1  0  0  0  0
 16 12  1  0  0  0  0
 16 17  1  0  0  0  0
 17 18  1  0  0  0  0
 18 19  2  0  0  0  0
 18 20  1  0  0  0  0
 21 20  2  0  0  0  0
 22 21  1  0  0  0  0
 22 23  1  0  0  0  0
 23 24  1  0  0  0  0
 25 22  2  0  0  0  0
 25 26  1  0  0  0  0
 26 27  1  0  0  0  0
 27 28  2  0  0  0  0
 27 29  1  0  0  0  0
 30 29  1  0  0  0  0
 31 30  2  0  0  0  0
 32 31  1  0  0  0  0
 32 33  1  0  0  0  0
 33 34  1  0  0  0  0
 34 35  2  0  0  0  0
 34 36  1  0  0  0  0
 36 37  2  0  0  0  0
 38 32  2  0  0  0  0
 39 38  1  0  0  0  0
 29 39  2  0  0  0  0
 40 25  1  0  0  0  0
 41 40  2  0  0  0  0
 20 41  1  0  0  0  0
 42  5  1  0  0  0  0
 43 42  2  0  0  0  0
 44 43  1  0  0  0  0
  3 44  2  0  0  0  0
 44 45  1  0  0  0  0
 45 46  1  0  0  0  0
 46 47  2  0  0  0  0
 46 48  1  0  0  0  0
 49 48  1  0  0  0  0
 50 49  2  0  0  0  0
 51 50  1  0  0  0  0
 51 52  1  0  0  0  0
 52 53  1  0  0  0  0
 53 54  2  0  0  0  0
 53 55  1  0  0  0  0
 55 56  2  0  0  0  0
 57 51  2  0  0  0  0
 58 57  1  0  0  0  0
 48 58  2  0  0  0  0
M  END
> <RowID>
201

> <Original_SMILES>
COC1C=C(C=CC=1OC(=O)C1C=CC(=CC=1)OC(=O)C=C)C(=O)OC1COC2C1OCC2OC(=O)C1=CC(OC)=C(C=C1)OC(=O)C1C=CC(=CC=1)OC(=O)C=C

> <Canonical_QSARr>
COC1C=C(C=CC=1OC(=O)C1C=CC(=CC=1)OC(=O)C=C)C(=O)OC1COC2C1OCC2OC(=O)C1=CC(OC)=C(C=C1)OC(=O)C1C=CC(=CC=1)OC(=O)C=C

> <InChI_Code_QSARr>
InChI=1S/C42H34O16/c1-5-35(43)53-27-13-7-23(8-14-27)39(45)55-29-17-11-25(19-31(29)49-3)41(47)57-33-21-51-38-34(22-52-37(33)38)58-42(48)26-12-18-30(32(20-26)50-4)56-40(46)24-9-15-28(16-10-24)54-36(44)6-2/h5-20,33-34,37-38H,1-2,21-22H2,3-4H3

> <InChI Key_QSARr>
RCXJSWHFNRJVJP-UHFFFAOYSA-N

> <Salt_Solvent>


> <Salt_Solvent_ID>
0

> <Number of connected components>
1

$$$$
Molecule_202
  Mrv2316 01072400032D          

 32 36  0  0  0  0            999 V2000
    1.0401   -1.5667    0.0000 C   0  0  0  0  0  0  0  0  0  0  0  0
    1.2950   -0.7821    0.0000 C   0  0  0  0  0  0  0  0  0  0  0  0
    0.8101   -0.1146    0.0000 C   0  0  0  0  0  0  0  0  0  0  0  0
   -0.0149   -0.1146    0.0000 C   0  0  0  0  0  0  0  0  0  0  0  0
   -0.4274    0.5998    0.0000 C   0  0  0  0  0  0  0  0  0  0  0  0
   -1.2524    0.5998    0.0000 C   0  0  0  0  0  0  0  0  0  0  0  0
   -1.6649   -0.1146    0.0000 C   0  0  0  0  0  0  0  0  0  0  0  0
   -2.4899   -0.1146    0.0000 O   0  0  0  0  0  0  0  0  0  0  0  0
   -2.9024   -0.8291    0.0000 C   0  0  0  0  0  0  0  0  0  0  0  0
   -3.7274   -0.8291    0.0000 C   0  0  0  0  0  0  0  0  0  0  0  0
   -4.1399   -0.1146    0.0000 C   0  0  0  0  0  0  0  0  0  0  0  0
   -4.9649   -0.1146    0.0000 C   0  0  0  0  0  0  0  0  0  0  0  0
   -5.3774   -0.8291    0.0000 C   0  0  0  0  0  0  0  0  0  0  0  0
   -4.9649   -1.5436    0.0000 C   0  0  0  0  0  0  0  0  0  0  0  0
   -4.1399   -1.5436    0.0000 C   0  0  0  0  0  0  0  0  0  0  0  0
   -1.2524   -0.8291    0.0000 C   0  0  0  0  0  0  0  0  0  0  0  0
   -0.4274   -0.8291    0.0000 C   0  0  0  0  0  0  0  0  0  0  0  0
    1.2950    0.5528    0.0000 N   0  0  0  0  0  0  0  0  0  0  0  0
    2.0796    0.2979    0.0000 C   0  0  0  0  0  0  0  0  0  0  0  0
    2.7941    0.7104    0.0000 C   0  0  0  0  0  0  0  0  0  0  0  0
    3.5086    0.2979    0.0000 C   0  0  0  0  0  0  0  0  0  0  0  0
    3.5086   -0.5271    0.0000 C   0  0  0  0  0  0  0  0  0  0  0  0
    2.7941   -0.9396    0.0000 C   0  0  0  0  0  0  0  0  0  0  0  0
    2.0796   -0.5271    0.0000 C   0  0  0  0  0  0  0  0  0  0  0  0
    4.2230   -0.9396    0.0000 O   0  0  0  0  0  0  0  0  0  0  0  0
    4.2230   -1.7646    0.0000 C   0  0  0  0  0  0  0  0  0  0  0  0
    4.9375   -2.1771    0.0000 C   0  0  0  0  0  0  0  0  0  0  0  0
    4.9375   -3.0021    0.0000 C   0  0  0  0  0  0  0  0  0  0  0  0
    5.6520   -3.4146    0.0000 C   0  0  0  0  0  0  0  0  0  0  0  0
    6.3664   -3.0021    0.0000 C   0  0  0  0  0  0  0  0  0  0  0  0
    6.3664   -2.1771    0.0000 C   0  0  0  0  0  0  0  0  0  0  0  0
    5.6520   -1.7646    0.0000 C   0  0  0  0  0  0  0  0  0  0  0  0
  1  2  1  0  0  0  0
  3  2  2  0  0  0  0
  3  4  1  0  0  0  0
  5  4  1  0  0  0  0
  6  5  2  0  0  0  0
  7  6  1  0  0  0  0
  7  8  1  0  0  0  0
  8  9  1  0  0  0  0
  9 10  1  0  0  0  0
 11 10  1  0  0  0  0
 12 11  2  0  0  0  0
 13 12  1  0  0  0  0
 14 13  2  0  0  0  0
 15 14  1  0  0  0  0
 10 15  2  0  0  0  0
 16  7  2  0  0  0  0
 17 16  1  0  0  0  0
  4 17  2  0  0  0  0
 18  3  1  0  0  0  0
 19 18  1  0  0  0  0
 19 20  1  0  0  0  0
 20 21  2  0  0  0  0
 21 22  1  0  0  0  0
 22 23  2  0  0  0  0
 23 24  1  0  0  0  0
  2 24  1  0  0  0  0
 24 19  2  0  0  0  0
 22 25  1  0  0  0  0
 25 26  1  0  0  0  0
 26 27  1  0  0  0  0
 28 27  1  0  0  0  0
 29 28  2  0  0  0  0
 30 29  1  0  0  0  0
 31 30  2  0  0  0  0
 32 31  1  0  0  0  0
 27 32  2  0  0  0  0
M  END
> <RowID>
202

> <Original_SMILES>
CC1=C(NC2C=CC(=CC=21)OCC1C=CC=CC=1)C1C=CC(=CC=1)OCC1C=CC=CC=1

> <Canonical_QSARr>
CC1=C(NC2C=CC(=CC=21)OCC1C=CC=CC=1)C1C=CC(=CC=1)OCC1C=CC=CC=1

> <InChI_Code_QSARr>
InChI=1S/C29H25NO2/c1-21-27-18-26(32-20-23-10-6-3-7-11-23)16-17-28(27)30-29(21)24-12-14-25(15-13-24)31-19-22-8-4-2-5-9-22/h2-18,30H,19-20H2,1H3

> <InChI Key_QSARr>
KRIJKJMYOVWRSJ-UHFFFAOYSA-N

> <Salt_Solvent>


> <Salt_Solvent_ID>
0

> <Number of connected components>
1

$$$$
Molecule_203
  Mrv2316 01072400032D          

  5  4  0  0  0  0            999 V2000
    2.8875   -0.7145    0.0000 N   0  0  0  0  0  0  0  0  0  0  0  0
    2.0625   -0.7145    0.0000 C   0  0  0  0  0  0  0  0  0  0  0  0
    1.2375   -0.7145    0.0000 C   0  0  0  0  0  0  0  0  0  0  0  0
    0.8250   -0.0000    0.0000 C   0  0  0  0  0  0  0  0  0  0  0  0
    0.0000   -0.0000    0.0000 O   0  0  0  0  0  0  0  0  0  0  0  0
  1  2  3  0  0  0  0
  2  3  1  0  0  0  0
  3  4  1  0  0  0  0
  4  5  1  0  0  0  0
M  END
> <RowID>
203

> <Original_SMILES>
N#CCCO

> <Canonical_QSARr>
N#CCCO

> <InChI_Code_QSARr>
InChI=1S/C3H5NO/c4-2-1-3-5/h5H,1,3H2

> <InChI Key_QSARr>
WSGYTJNNHPZFKR-UHFFFAOYSA-N

> <Salt_Solvent>


> <Salt_Solvent_ID>
0

> <Number of connected components>
1

$$$$
Molecule_204
  Mrv2316 01072400032D          

 28 30  0  0  0  0            999 V2000
   -1.4289   -2.4750    0.0000 C   0  0  0  0  0  0  0  0  0  0  0  0
   -0.7145   -2.0625    0.0000 O   0  0  0  0  0  0  0  0  0  0  0  0
   -0.7145   -1.2375    0.0000 C   0  0  0  0  0  0  0  0  0  0  0  0
   -1.4289   -0.8250    0.0000 C   0  0  0  0  0  0  0  0  0  0  0  0
   -1.4289    0.0000    0.0000 C   0  0  0  0  0  0  0  0  0  0  0  0
   -0.7145    0.4125    0.0000 C   0  0  0  0  0  0  0  0  0  0  0  0
   -0.7145    1.2375    0.0000 Cl  0  0  0  0  0  0  0  0  0  0  0  0
    0.0000    0.0000    0.0000 C   0  0  0  0  0  0  0  0  0  0  0  0
    0.0000   -0.8250    0.0000 C   0  0  0  0  0  0  0  0  0  0  0  0
    0.7145   -1.2375    0.0000 P   0  0  0  0  0  0  0  0  0  0  0  0
    1.4289   -0.8250    0.0000 C   0  0  0  0  0  0  0  0  0  0  0  0
    2.1434   -1.2375    0.0000 C   0  0  0  0  0  0  0  0  0  0  0  0
    2.8579   -0.8250    0.0000 C   0  0  0  0  0  0  0  0  0  0  0  0
    3.5724   -1.2375    0.0000 Cl  0  0  0  0  0  0  0  0  0  0  0  0
    2.8579   -0.0000    0.0000 C   0  0  0  0  0  0  0  0  0  0  0  0
    2.1434    0.4125    0.0000 C   0  0  0  0  0  0  0  0  0  0  0  0
    1.4289   -0.0000    0.0000 C   0  0  0  0  0  0  0  0  0  0  0  0
    0.7145    0.4125    0.0000 O   0  0  0  0  0  0  0  0  0  0  0  0
    0.7145    1.2375    0.0000 C   0  0  0  0  0  0  0  0  0  0  0  0
    0.7145   -2.0625    0.0000 C   0  0  0  0  0  0  0  0  0  0  0  0
    0.0000   -2.4750    0.0000 C   0  0  0  0  0  0  0  0  0  0  0  0
    0.0000   -3.3000    0.0000 C   0  0  0  0  0  0  0  0  0  0  0  0
   -0.7145   -3.7125    0.0000 Cl  0  0  0  0  0  0  0  0  0  0  0  0
    0.7145   -3.7125    0.0000 C   0  0  0  0  0  0  0  0  0  0  0  0
    1.4289   -3.3000    0.0000 C   0  0  0  0  0  0  0  0  0  0  0  0
    1.4289   -2.4750    0.0000 C   0  0  0  0  0  0  0  0  0  0  0  0
    2.1434   -2.0625    0.0000 O   0  0  0  0  0  0  0  0  0  0  0  0
    2.8579   -2.4750    0.0000 C   0  0  0  0  0  0  0  0  0  0  0  0
  1  2  1  0  0  0  0
  2  3  1  0  0  0  0
  4  3  1  0  0  0  0
  5  4  2  0  0  0  0
  6  5  1  0  0  0  0
  6  7  1  0  0  0  0
  8  6  2  0  0  0  0
  9  8  1  0  0  0  0
  3  9  2  0  0  0  0
  9 10  1  0  0  0  0
 10 11  1  0  0  0  0
 12 11  1  0  0  0  0
 13 12  2  0  0  0  0
 13 14  1  0  0  0  0
 15 13  1  0  0  0  0
 16 15  2  0  0  0  0
 17 16  1  0  0  0  0
 11 17  2  0  0  0  0
 17 18  1  0  0  0  0
 18 19  1  0  0  0  0
 10 20  1  0  0  0  0
 21 20  1  0  0  0  0
 22 21  2  0  0  0  0
 22 23  1  0  0  0  0
 24 22  1  0  0  0  0
 25 24  2  0  0  0  0
 26 25  1  0  0  0  0
 20 26  2  0  0  0  0
 26 27  1  0  0  0  0
 27 28  1  0  0  0  0
M  END
> <RowID>
204

> <Original_SMILES>
COC1C=CC(Cl)=CC=1P(C1C=C(Cl)C=CC=1OC)C1C=C(Cl)C=CC=1OC

> <Canonical_QSARr>
COC1C=CC(Cl)=CC=1P(C1C=C(Cl)C=CC=1OC)C1C=C(Cl)C=CC=1OC

> <InChI_Code_QSARr>
InChI=1S/C21H18Cl3O3P/c1-25-16-7-4-13(22)10-19(16)28(20-11-14(23)5-8-17(20)26-2)21-12-15(24)6-9-18(21)27-3/h4-12H,1-3H3

> <InChI Key_QSARr>
CPBULKRAMBDBGY-UHFFFAOYSA-N

> <Salt_Solvent>


> <Salt_Solvent_ID>
0

> <Number of connected components>
1

$$$$
Molecule_206
  Mrv2316 01072400032D          

  4  3  0  0  0  0            999 V2000
    1.2375    0.7145    0.0000 O   0  0  0  0  0  0  0  0  0  0  0  0
    0.8250   -0.0000    0.0000 C   0  0  0  0  0  0  0  0  0  0  0  0
    1.2375   -0.7145    0.0000 O   0  0  0  0  0  0  0  0  0  0  0  0
    0.0000   -0.0000    0.0000 C   0  0  0  0  0  0  0  0  0  0  0  0
  1  2  1  0  0  0  0
  2  3  2  0  0  0  0
  2  4  1  0  0  0  0
M  END
> <RowID>
206

> <Original_SMILES>
[NH4+].CC([O-])=O

> <Canonical_QSARr>
CC(O)=O

> <InChI_Code_QSARr>
InChI=1S/C2H4O2/c1-2(3)4/h1H3,(H,3,4)

> <InChI Key_QSARr>
QTBSBXVTEAMEQO-UHFFFAOYSA-N

> <Salt_Solvent>
[NH4+]

> <Salt_Solvent_ID>
70

> <Number of connected components>
2

$$$$
Molecule_207
  Mrv2316 01072400032D          

 11 11  0  0  0  0            999 V2000
    1.0392    3.3000    0.0000 O   0  0  0  0  0  0  0  0  0  0  0  0
    1.0392    2.4750    0.0000 C   0  0  0  0  0  0  0  0  0  0  0  0
    1.7537    2.0625    0.0000 O   0  0  0  0  0  0  0  0  0  0  0  0
    0.3248    2.0625    0.0000 C   0  0  0  0  0  0  0  0  0  0  0  0
    0.3248    1.2375    0.0000 C   0  0  0  0  0  0  0  0  0  0  0  0
   -0.3897    0.8250    0.0000 C   0  0  0  0  0  0  0  0  0  0  0  0
   -0.3897   -0.0000    0.0000 C   0  0  0  0  0  0  0  0  0  0  0  0
    0.3248   -0.4125    0.0000 C   0  0  0  0  0  0  0  0  0  0  0  0
    1.0392    0.0000    0.0000 C   0  0  0  0  0  0  0  0  0  0  0  0
    1.0392    0.8250    0.0000 C   0  0  0  0  0  0  0  0  0  0  0  0
   -0.3897    2.4750    0.0000 O   0  0  0  0  0  0  0  0  0  0  0  0
  1  2  1  0  0  0  0
  2  3  2  0  0  0  0
  2  4  1  0  0  0  0
  4  5  1  0  0  0  0
  6  5  2  0  0  0  0
  7  6  1  0  0  0  0
  8  7  2  0  0  0  0
  9  8  1  0  0  0  0
 10  9  2  0  0  0  0
  5 10  1  0  0  0  0
  4 11  1  0  0  0  0
M  END
> <RowID>
207

> <Original_SMILES>
[NH4+].[O-]C(=O)C(O)C1C=CC=CC=1

> <Canonical_QSARr>
OC(=O)C(O)C1C=CC=CC=1

> <InChI_Code_QSARr>
InChI=1S/C8H8O3/c9-7(8(10)11)6-4-2-1-3-5-6/h1-5,7,9H,(H,10,11)

> <InChI Key_QSARr>
IWYDHOAUDWTVEP-UHFFFAOYSA-N

> <Salt_Solvent>
[NH4+]

> <Salt_Solvent_ID>
70

> <Number of connected components>
2

$$$$
Molecule_208
  Mrv2316 01072400032D          

 14 13  0  0  0  0            999 V2000
    1.0461    3.9039    0.0000 C   0  0  0  0  0  0  0  0  0  0  0  0
    1.0461    3.0789    0.0000 C   0  0  0  0  0  0  0  0  0  0  0  0
    1.7605    2.6664    0.0000 C   0  0  0  0  0  0  0  0  0  0  0  0
    1.7605    1.8414    0.0000 C   0  0  0  0  0  0  0  0  0  0  0  0
    2.4750    1.4289    0.0000 C   0  0  0  0  0  0  0  0  0  0  0  0
    3.1895    1.8414    0.0000 C   0  0  0  0  0  0  0  0  0  0  0  0
    3.1895    2.6664    0.0000 O   0  0  0  0  0  0  0  0  0  0  0  0
    3.9039    1.4289    0.0000 O   0  0  0  0  0  0  0  0  0  0  0  0
    4.6184    1.8414    0.0000 C   0  0  0  0  0  0  0  0  0  0  0  0
    5.3329    1.4289    0.0000 C   0  0  0  0  0  0  0  0  0  0  0  0
    6.0474    1.8414    0.0000 C   0  0  0  0  0  0  0  0  0  0  0  0
    6.7618    1.4289    0.0000 C   0  0  0  0  0  0  0  0  0  0  0  0
    7.4763    1.8414    0.0000 C   0  0  0  0  0  0  0  0  0  0  0  0
    8.1908    1.4289    0.0000 C   0  0  0  0  0  0  0  0  0  0  0  0
  1  2  1  0  0  0  0
  3  2  1  4  0  0  0
  3  4  2  0  0  0  0
  4  5  1  0  0  0  0
  5  6  1  0  0  0  0
  6  7  2  0  0  0  0
  6  8  1  0  0  0  0
  8  9  1  0  0  0  0
  9 10  1  0  0  0  0
 11 10  1  4  0  0  0
 11 12  2  0  0  0  0
 12 13  1  0  0  0  0
 13 14  1  0  0  0  0
M  END
> <RowID>
208

> <Original_SMILES>
CCC=CCC(=O)OCCC=CCC

> <Canonical_QSARr>
CCC=CCC(=O)OCCC=CCC

> <InChI_Code_QSARr>
InChI=1S/C12H20O2/c1-3-5-7-9-11-14-12(13)10-8-6-4-2/h5-8H,3-4,9-11H2,1-2H3

> <InChI Key_QSARr>
UZJQQWFHPLYECS-UHFFFAOYSA-N

> <Salt_Solvent>


> <Salt_Solvent_ID>
0

> <Number of connected components>
1

$$$$
Molecule_210
  Mrv2316 01072400032D          

 30 34  0  0  0  0            999 V2000
    4.4508   -2.0708    0.0000 C   0  0  0  0  0  0  0  0  0  0  0  0
    3.7363   -2.4833    0.0000 C   0  0  0  0  0  0  0  0  0  0  0  0
    3.3238   -1.7689    0.0000 C   0  0  0  0  0  0  0  0  0  0  0  0
    4.1489   -3.1978    0.0000 C   0  0  0  0  0  0  0  0  0  0  0  0
    3.0219   -2.8959    0.0000 O   0  0  0  0  0  0  0  0  0  0  0  0
    2.3074   -2.4834    0.0000 C   0  0  0  0  0  0  0  0  0  0  0  0
    2.3074   -1.6584    0.0000 O   0  0  0  0  0  0  0  0  0  0  0  0
    1.5930   -2.8960    0.0000 N   0  0  0  0  0  0  0  0  0  0  0  0
    0.8785   -2.4835    0.0000 C   0  0  0  0  0  0  0  0  0  0  0  0
    0.1640   -2.8960    0.0000 C   0  0  0  0  0  0  0  0  0  0  0  0
    0.1641   -3.7210    0.0000 O   0  0  0  0  0  0  0  0  0  0  0  0
   -0.5505   -2.4836    0.0000 N   0  0  0  0  0  0  0  0  0  0  0  0
   -0.6368   -1.6631    0.0000 C   0  0  0  0  0  0  0  0  0  0  0  0
   -0.8917   -0.8785    0.0000 C   0  0  0  0  0  0  0  0  0  0  0  0
   -1.4437   -1.4916    0.0000 C   0  0  0  0  0  0  0  0  0  0  0  0
   -1.8562   -2.2061    0.0000 C   0  0  0  0  0  0  0  0  0  0  0  0
   -1.3041   -2.8192    0.0000 C   0  0  0  0  0  0  0  0  0  0  0  0
   -1.4756   -3.6262    0.0000 C   0  0  0  0  0  0  0  0  0  0  0  0
   -1.6471   -4.4331    0.0000 N   0  0  0  0  0  0  0  0  0  0  0  0
    0.8784   -1.6585    0.0000 C   0  0  0  0  0  0  0  0  0  0  0  0
    0.1430   -2.0322    0.0000 C   0  0  0  0  0  0  0  0  0  0  0  0
    0.5924   -1.2419    0.0000 C   0  0  0  0  0  0  0  0  0  0  0  0
   -0.2052   -1.0310    0.0000 O   0  0  0  0  0  0  0  0  0  0  0  0
    1.3279   -1.6156    0.0000 C   0  0  0  0  0  0  0  0  0  0  0  0
    2.0635   -1.2419    0.0000 C   0  0  0  0  0  0  0  0  0  0  0  0
    1.6140   -2.0322    0.0000 C   0  0  0  0  0  0  0  0  0  0  0  0
    2.0635   -0.4945    0.0000 C   0  0  0  0  0  0  0  0  0  0  0  0
    1.3279   -0.1208    0.0000 C   0  0  0  0  0  0  0  0  0  0  0  0
    0.5924   -0.4945    0.0000 C   0  0  0  0  0  0  0  0  0  0  0  0
    0.8784   -0.9111    0.0000 C   0  0  0  0  0  0  0  0  0  0  0  0
  1  2  1  0  0  0  0
  2  3  1  0  0  0  0
  2  4  1  0  0  0  0
  2  5  1  0  0  0  0
  5  6  1  0  0  0  0
  6  7  2  0  0  0  0
  6  8  1  0  0  0  0
  8  9  1  0  0  0  0
  9 10  1  0  0  0  0
 10 11  2  0  0  0  0
 10 12  1  0  0  0  0
 13 12  1  0  0  0  0
 13 14  1  0  0  0  0
 14 15  1  0  0  0  0
 15 13  1  0  0  0  0
 16 15  1  0  0  0  0
 17 16  1  0  0  0  0
 12 17  1  0  0  0  0
 17 18  1  0  0  0  0
 18 19  3  0  0  0  0
  9 20  1  0  0  0  0
 21 20  1  0  0  0  0
 22 21  1  0  0  0  0
 22 23  1  0  0  0  0
 22 24  1  0  0  0  0
 24 25  1  0  0  0  0
 25 26  1  0  0  0  0
 26 20  1  0  0  0  0
 30 28  1  0  0  0  0
 27 28  1  0  0  0  0
 28 29  1  0  0  0  0
 29 22  1  0  0  0  0
 25 27  1  0  0  0  0
 20 30  1  0  0  0  0
M  END
> <RowID>
210

> <Original_SMILES>
CC(C)(C)OC(=O)NC(C(=O)N1C2CC2CC1C#N)C12CC3(O)CC(C1)CC(C2)C3

> <Canonical_QSARr>
CC(C)(C)OC(=O)NC(C(=O)N1C2CC2CC1C#N)C12CC3(O)CC(C1)CC(C2)C3

> <InChI_Code_QSARr>
InChI=1S/C23H33N3O4/c1-21(2,3)30-20(28)25-18(19(27)26-16(11-24)5-15-6-17(15)26)22-7-13-4-14(8-22)10-23(29,9-13)12-22/h13-18,29H,4-10,12H2,1-3H3,(H,25,28)

> <InChI Key_QSARr>
DZEAFYQJPRVNIQ-UHFFFAOYSA-N

> <Salt_Solvent>


> <Salt_Solvent_ID>
0

> <Number of connected components>
1

$$$$
Molecule_211
  Mrv2316 01072400032D          

 23 26  0  0  0  0            999 V2000
    5.9193   -0.8914    0.0000 N   0  0  0  0  0  0  0  0  0  0  0  0
    6.4511   -0.2607    0.0000 C   0  0  0  0  0  0  0  0  0  0  0  0
    7.2633   -0.4059    0.0000 O   0  0  0  0  0  0  0  0  0  0  0  0
    6.1708    0.5152    0.0000 C   0  0  0  0  0  0  0  0  0  0  0  0
    5.3587    0.6604    0.0000 C   0  0  0  0  0  0  0  0  0  0  0  0
    4.8269    0.0297    0.0000 C   0  0  0  0  0  0  0  0  0  0  0  0
    4.5466    0.8056    0.0000 C   0  0  0  0  0  0  0  0  0  0  0  0
    5.1072   -0.7462    0.0000 C   0  0  0  0  0  0  0  0  0  0  0  0
    4.5754   -1.3769    0.0000 C   0  0  0  0  0  0  0  0  0  0  0  0
    3.7633   -1.2317    0.0000 C   0  0  0  0  0  0  0  0  0  0  0  0
    3.4830   -0.4558    0.0000 C   0  0  0  0  0  0  0  0  0  0  0  0
    4.0148    0.1749    0.0000 C   0  0  0  0  0  0  0  0  0  0  0  0
    3.7345    0.9509    0.0000 C   0  0  0  0  0  0  0  0  0  0  0  0
    2.9224    1.0961    0.0000 C   0  0  0  0  0  0  0  0  0  0  0  0
    2.3905    0.4654    0.0000 C   0  0  0  0  0  0  0  0  0  0  0  0
    2.0307    1.2077    0.0000 C   0  0  0  0  0  0  0  0  0  0  0  0
    2.6708   -0.3106    0.0000 C   0  0  0  0  0  0  0  0  0  0  0  0
    2.0195   -0.8169    0.0000 C   0  0  0  0  0  0  0  0  0  0  0  0
    1.3367   -0.3539    0.0000 C   0  0  0  0  0  0  0  0  0  0  0  0
    1.5660    0.4386    0.0000 C   0  0  0  0  0  0  0  0  0  0  0  0
    1.0596    1.0899    0.0000 C   0  0  0  0  0  0  0  0  0  0  0  0
    0.2424    0.9770    0.0000 O   0  0  0  0  0  0  0  0  0  0  0  0
    1.3705    1.8541    0.0000 O   0  0  0  0  0  0  0  0  0  0  0  0
  2  1  1  0  0  0  0
  2  3  2  0  0  0  0
  4  2  1  0  0  0  0
  5  4  1  0  0  0  0
  6  5  1  0  0  0  0
  6  7  1  0  0  0  0
  6  8  1  0  0  0  0
  1  8  2  0  0  0  0
  8  9  1  0  0  0  0
  9 10  1  0  0  0  0
 10 11  1  0  0  0  0
 12 11  1  0  0  0  0
 12  6  1  0  0  0  0
 13 12  1  0  0  0  0
 14 13  1  0  0  0  0
 15 14  1  0  0  0  0
 15 16  1  0  0  0  0
 15 17  1  0  0  0  0
 11 17  1  0  0  0  0
 17 18  1  0  0  0  0
 18 19  1  0  0  0  0
 19 20  1  0  0  0  0
 20 15  1  0  0  0  0
 20 21  1  0  0  0  0
 21 22  1  0  0  0  0
 21 23  2  0  0  0  0
M  END
> <RowID>
211

> <Original_SMILES>
CC12CCC3C(CC=C4NC(=O)CCC43C)C1CCC2C(O)=O

> <Canonical_QSARr>
CC12CCC3C(CCC4=NC(=O)CCC43C)C1CCC2C(O)=O

> <InChI_Code_QSARr>
InChI=1S/C19H27NO3/c1-18-9-7-13-11(12(18)4-5-14(18)17(22)23)3-6-15-19(13,2)10-8-16(21)20-15/h11-14H,3-10H2,1-2H3,(H,22,23)

> <InChI Key_QSARr>
OXSHVARYXXNRKZ-UHFFFAOYSA-N

> <Salt_Solvent>


> <Salt_Solvent_ID>
0

> <Number of connected components>
1

$$$$
Molecule_212
  Mrv2316 01072400032D          

 10  9  0  0  0  0            999 V2000
    4.5375    3.5724    0.0000 O   0  0  0  0  0  0  0  0  0  0  0  0
    3.7125    3.5724    0.0000 C   0  0  0  0  0  0  0  0  0  0  0  0
    3.3000    4.2868    0.0000 O   0  0  0  0  0  0  0  0  0  0  0  0
    3.3000    2.8579    0.0000 C   0  0  0  0  0  0  0  0  0  0  0  0
    2.4750    2.8579    0.0000 C   0  0  0  0  0  0  0  0  0  0  0  0
    2.0625    2.1434    0.0000 C   0  0  0  0  0  0  0  0  0  0  0  0
    1.2375    2.1434    0.0000 C   0  0  0  0  0  0  0  0  0  0  0  0
    0.8250    1.4289    0.0000 C   0  0  0  0  0  0  0  0  0  0  0  0
    3.7125    2.1434    0.0000 C   0  0  0  0  0  0  0  0  0  0  0  0
    3.3000    1.4289    0.0000 C   0  0  0  0  0  0  0  0  0  0  0  0
  1  2  1  0  0  0  0
  2  3  2  0  0  0  0
  2  4  1  0  0  0  0
  4  5  1  0  0  0  0
  5  6  1  0  0  0  0
  6  7  1  0  0  0  0
  7  8  1  0  0  0  0
  4  9  1  0  0  0  0
  9 10  1  0  0  0  0
M  END
> <RowID>
212

> <Original_SMILES>
[Ni+2].CCCCC(CC)C([O-])=O.CCCCC(CC)C([O-])=O

> <Canonical_QSARr>
CCCCC(CC)C(O)=O

> <InChI_Code_QSARr>
InChI=1S/C8H16O2/c1-3-5-6-7(4-2)8(9)10/h7H,3-6H2,1-2H3,(H,9,10)

> <InChI Key_QSARr>
OBETXYAYXDNJHR-UHFFFAOYSA-N

> <Salt_Solvent>
[Ni+2]

> <Salt_Solvent_ID>
280

> <Number of connected components>
3

$$$$
Molecule_213
  Mrv2316 01072400032D          

  3  2  0  0  0  0            999 V2000
    1.2376   -0.7146    0.0000 O   0  0  0  0  0  0  0  0  0  0  0  0
    1.9521   -1.1271    0.0000 C   0  0  0  0  0  0  0  0  0  0  0  0
    2.6666   -0.7146    0.0000 C   0  0  0  0  0  0  0  0  0  0  0  0
  1  2  1  0  0  0  0
  2  3  1  0  0  0  0
M  END
> <RowID>
213

> <Original_SMILES>
[Mg+2].CC[O-].CC[O-]

> <Canonical_QSARr>
CCO

> <InChI_Code_QSARr>
InChI=1S/C2H6O/c1-2-3/h3H,2H2,1H3

> <InChI Key_QSARr>
LFQSCWFLJHTTHZ-UHFFFAOYSA-N

> <Salt_Solvent>
[Mg+2]

> <Salt_Solvent_ID>
120

> <Number of connected components>
3

$$$$
Molecule_214
  Mrv2316 01072400032D          

 11 11  0  0  0  0            999 V2000
    1.4939    2.8875    0.0000 N   0  0  0  0  0  0  0  0  0  0  0  0
    0.7794    2.4750    0.0000 P   0  0  0  0  0  0  0  0  0  0  0  0
    0.3669    3.1895    0.0000 N   0  0  0  0  0  0  0  0  0  0  0  0
    1.1919    1.7605    0.0000 O   0  0  0  0  0  0  0  0  0  0  0  0
    0.0649    2.0625    0.0000 O   0  0  0  0  0  0  0  0  0  0  0  0
    0.0649    1.2375    0.0000 C   0  0  0  0  0  0  0  0  0  0  0  0
   -0.6495    0.8250    0.0000 C   0  0  0  0  0  0  0  0  0  0  0  0
   -0.6495   -0.0000    0.0000 C   0  0  0  0  0  0  0  0  0  0  0  0
    0.0649   -0.4125    0.0000 C   0  0  0  0  0  0  0  0  0  0  0  0
    0.7794    0.0000    0.0000 C   0  0  0  0  0  0  0  0  0  0  0  0
    0.7794    0.8250    0.0000 C   0  0  0  0  0  0  0  0  0  0  0  0
  1  2  1  0  0  0  0
  2  3  1  0  0  0  0
  2  4  2  0  0  0  0
  2  5  1  0  0  0  0
  5  6  1  0  0  0  0
  7  6  1  0  0  0  0
  8  7  2  0  0  0  0
  9  8  1  0  0  0  0
 10  9  2  0  0  0  0
 11 10  1  0  0  0  0
  6 11  2  0  0  0  0
M  END
> <RowID>
214

> <Original_SMILES>
NP(N)(=O)OC1C=CC=CC=1

> <Canonical_QSARr>
NP(N)(=O)OC1C=CC=CC=1

> <InChI_Code_QSARr>
InChI=1S/C6H9N2O2P/c7-11(8,9)10-6-4-2-1-3-5-6/h1-5H,(H4,7,8,9)

> <InChI Key_QSARr>
AYRRNFHDJUXLEQ-UHFFFAOYSA-N

> <Salt_Solvent>


> <Salt_Solvent_ID>
0

> <Number of connected components>
1

$$$$
Molecule_215
  Mrv2316 01072400032D          

 16 18  0  0  0  0            999 V2000
    2.1434    2.0625    0.0000 O   0  0  0  0  0  0  0  0  0  0  0  0
    2.1434    1.2375    0.0000 C   0  0  0  0  0  0  0  0  0  0  0  0
    2.8579    0.8250    0.0000 C   0  0  0  0  0  0  0  0  0  0  0  0
    3.5724    1.2375    0.0000 C   0  0  0  0  0  0  0  0  0  0  0  0
    4.2868    0.8250    0.0000 C   0  0  0  0  0  0  0  0  0  0  0  0
    4.2868   -0.0000    0.0000 C   0  0  0  0  0  0  0  0  0  0  0  0
    3.5724   -0.4125    0.0000 C   0  0  0  0  0  0  0  0  0  0  0  0
    2.8579    0.0000    0.0000 C   0  0  0  0  0  0  0  0  0  0  0  0
    2.1434   -0.4125    0.0000 C   0  0  0  0  0  0  0  0  0  0  0  0
    2.1434   -1.2375    0.0000 O   0  0  0  0  0  0  0  0  0  0  0  0
    1.4289    0.0000    0.0000 C   0  0  0  0  0  0  0  0  0  0  0  0
    0.7145   -0.4125    0.0000 C   0  0  0  0  0  0  0  0  0  0  0  0
   -0.0000    0.0000    0.0000 C   0  0  0  0  0  0  0  0  0  0  0  0
   -0.0000    0.8250    0.0000 C   0  0  0  0  0  0  0  0  0  0  0  0
    0.7145    1.2375    0.0000 C   0  0  0  0  0  0  0  0  0  0  0  0
    1.4289    0.8250    0.0000 C   0  0  0  0  0  0  0  0  0  0  0  0
  1  2  2  0  0  0  0
  3  2  1  0  0  0  0
  3  4  1  0  0  0  0
  4  5  2  0  0  0  0
  5  6  1  0  0  0  0
  6  7  2  0  0  0  0
  7  8  1  0  0  0  0
  8  3  2  0  0  0  0
  9  8  1  0  0  0  0
  9 10  2  0  0  0  0
 11  9  1  0  0  0  0
 11 12  1  0  0  0  0
 12 13  2  0  0  0  0
 13 14  1  0  0  0  0
 14 15  2  0  0  0  0
 15 16  1  0  0  0  0
  2 16  1  0  0  0  0
 16 11  2  0  0  0  0
M  END
> <RowID>
215

> <Original_SMILES>
O=C1C2C=CC=CC=2C(=O)C2C=CC=CC1=2

> <Canonical_QSARr>
O=C1C2C=CC=CC=2C(=O)C2C=CC=CC1=2

> <InChI_Code_QSARr>
InChI=1S/C14H8O2/c15-13-9-5-1-2-6-10(9)14(16)12-8-4-3-7-11(12)13/h1-8H

> <InChI Key_QSARr>
RZVHIXYEVGDQDX-UHFFFAOYSA-N

> <Salt_Solvent>


> <Salt_Solvent_ID>
0

> <Number of connected components>
1

$$$$
Molecule_216
  Mrv2316 01072400032D          

 10  9  0  0  0  0            999 V2000
    4.5375    3.5724    0.0000 O   0  0  0  0  0  0  0  0  0  0  0  0
    3.7125    3.5724    0.0000 C   0  0  0  0  0  0  0  0  0  0  0  0
    3.3000    4.2868    0.0000 O   0  0  0  0  0  0  0  0  0  0  0  0
    3.3000    2.8579    0.0000 C   0  0  0  0  0  0  0  0  0  0  0  0
    2.4750    2.8579    0.0000 C   0  0  0  0  0  0  0  0  0  0  0  0
    2.0625    2.1434    0.0000 C   0  0  0  0  0  0  0  0  0  0  0  0
    1.2375    2.1434    0.0000 C   0  0  0  0  0  0  0  0  0  0  0  0
    0.8250    1.4289    0.0000 C   0  0  0  0  0  0  0  0  0  0  0  0
    3.7125    2.1434    0.0000 C   0  0  0  0  0  0  0  0  0  0  0  0
    3.3000    1.4289    0.0000 C   0  0  0  0  0  0  0  0  0  0  0  0
  1  2  1  0  0  0  0
  2  3  2  0  0  0  0
  2  4  1  0  0  0  0
  4  5  1  0  0  0  0
  5  6  1  0  0  0  0
  6  7  1  0  0  0  0
  7  8  1  0  0  0  0
  4  9  1  0  0  0  0
  9 10  1  0  0  0  0
M  END
> <RowID>
216

> <Original_SMILES>
[Na+].CCCCC(CC)C([O-])=O

> <Canonical_QSARr>
CCCCC(CC)C(O)=O

> <InChI_Code_QSARr>
InChI=1S/C8H16O2/c1-3-5-6-7(4-2)8(9)10/h7H,3-6H2,1-2H3,(H,9,10)

> <InChI Key_QSARr>
OBETXYAYXDNJHR-UHFFFAOYSA-N

> <Salt_Solvent>
[Na+]

> <Salt_Solvent_ID>
110

> <Number of connected components>
2

$$$$
Molecule_217
  Mrv2316 01072400032D          

 26 25  0  0  0  0            999 V2000
    0.8250   -6.6000    0.0000 F   0  0  0  0  0  0  0  0  0  0  0  0
    0.8250   -5.7750    0.0000 C   0  0  0  0  0  0  0  0  0  0  0  0
    1.6500   -5.7750    0.0000 F   0  0  0  0  0  0  0  0  0  0  0  0
    0.0000   -5.7750    0.0000 F   0  0  0  0  0  0  0  0  0  0  0  0
    0.8250   -4.9500    0.0000 C   0  0  0  0  0  0  0  0  0  0  0  0
    1.6500   -4.9500    0.0000 F   0  0  0  0  0  0  0  0  0  0  0  0
    0.0000   -4.9500    0.0000 F   0  0  0  0  0  0  0  0  0  0  0  0
    0.8250   -4.1250    0.0000 C   0  0  0  0  0  0  0  0  0  0  0  0
    1.6500   -4.1250    0.0000 F   0  0  0  0  0  0  0  0  0  0  0  0
    0.0000   -4.1250    0.0000 F   0  0  0  0  0  0  0  0  0  0  0  0
    0.8250   -3.3000    0.0000 C   0  0  0  0  0  0  0  0  0  0  0  0
    1.6500   -3.3000    0.0000 F   0  0  0  0  0  0  0  0  0  0  0  0
   -0.0000   -3.3000    0.0000 F   0  0  0  0  0  0  0  0  0  0  0  0
    0.8250   -2.4750    0.0000 C   0  0  0  0  0  0  0  0  0  0  0  0
    1.6500   -2.4750    0.0000 F   0  0  0  0  0  0  0  0  0  0  0  0
   -0.0000   -2.4750    0.0000 F   0  0  0  0  0  0  0  0  0  0  0  0
    0.8250   -1.6500    0.0000 C   0  0  0  0  0  0  0  0  0  0  0  0
    1.6500   -1.6500    0.0000 F   0  0  0  0  0  0  0  0  0  0  0  0
   -0.0000   -1.6500    0.0000 F   0  0  0  0  0  0  0  0  0  0  0  0
    0.8250   -0.8250    0.0000 C   0  0  0  0  0  0  0  0  0  0  0  0
    1.6500   -0.8250    0.0000 F   0  0  0  0  0  0  0  0  0  0  0  0
   -0.0000   -0.8250    0.0000 F   0  0  0  0  0  0  0  0  0  0  0  0
    0.8250   -0.0000    0.0000 C   0  0  0  0  0  0  0  0  0  0  0  0
    0.8250    0.8250    0.0000 F   0  0  0  0  0  0  0  0  0  0  0  0
    1.6500   -0.0000    0.0000 F   0  0  0  0  0  0  0  0  0  0  0  0
   -0.0000   -0.0000    0.0000 F   0  0  0  0  0  0  0  0  0  0  0  0
  1  2  1  0  0  0  0
  2  3  1  0  0  0  0
  2  4  1  0  0  0  0
  2  5  1  0  0  0  0
  5  6  1  0  0  0  0
  5  7  1  0  0  0  0
  5  8  1  0  0  0  0
  8  9  1  0  0  0  0
  8 10  1  0  0  0  0
  8 11  1  0  0  0  0
 11 12  1  0  0  0  0
 11 13  1  0  0  0  0
 11 14  1  0  0  0  0
 14 15  1  0  0  0  0
 14 16  1  0  0  0  0
 14 17  1  0  0  0  0
 17 18  1  0  0  0  0
 17 19  1  0  0  0  0
 17 20  1  0  0  0  0
 20 21  1  0  0  0  0
 20 22  1  0  0  0  0
 20 23  1  0  0  0  0
 23 24  1  0  0  0  0
 23 25  1  0  0  0  0
 23 26  1  0  0  0  0
M  END
> <RowID>
217

> <Original_SMILES>
FC(F)(F)C(F)(F)C(F)(F)C(F)(F)C(F)(F)C(F)(F)C(F)(F)C(F)(F)F

> <Canonical_QSARr>
FC(F)(F)C(F)(F)C(F)(F)C(F)(F)C(F)(F)C(F)(F)C(F)(F)C(F)(F)F

> <InChI_Code_QSARr>
InChI=1S/C8F18/c9-1(10,3(13,14)5(17,18)7(21,22)23)2(11,12)4(15,16)6(19,20)8(24,25)26

> <InChI Key_QSARr>
YVBBRRALBYAZBM-UHFFFAOYSA-N

> <Salt_Solvent>


> <Salt_Solvent_ID>
0

> <Number of connected components>
1

$$$$
Molecule_218
  Mrv2316 01072400032D          

 18 18  0  0  0  0            999 V2000
    2.1434    0.0458    0.0000 C   0  0  0  0  0  0  0  0  0  0  0  0
    1.4289   -0.3667    0.0000 C   0  0  0  0  0  0  0  0  0  0  0  0
    1.4289   -1.1917    0.0000 O   0  0  0  0  0  0  0  0  0  0  0  0
    0.7145    0.0458    0.0000 O   0  0  0  0  0  0  0  0  0  0  0  0
    0.7145    0.8708    0.0000 C   0  0  0  0  0  0  0  0  0  0  0  0
    1.4289    1.2833    0.0000 C   0  0  0  0  0  0  0  0  0  0  0  0
    1.4289    2.1083    0.0000 C   0  0  0  0  0  0  0  0  0  0  0  0
    0.7145    2.5208    0.0000 C   0  0  0  0  0  0  0  0  0  0  0  0
    0.7145    3.3458    0.0000 C   0  0  0  0  0  0  0  0  0  0  0  0
   -0.0000    3.7583    0.0000 C   0  0  0  0  0  0  0  0  0  0  0  0
    1.4289    3.7583    0.0000 O   0  0  0  0  0  0  0  0  0  0  0  0
   -0.0000    2.1083    0.0000 C   0  0  0  0  0  0  0  0  0  0  0  0
   -0.0000    1.2833    0.0000 C   0  0  0  0  0  0  0  0  0  0  0  0
   -0.7145    0.8708    0.0000 C   0  0  0  0  0  0  0  0  0  0  0  0
   -0.7145    0.0458    0.0000 O   0  0  0  0  0  0  0  0  0  0  0  0
   -1.4289   -0.3667    0.0000 C   0  0  0  0  0  0  0  0  0  0  0  0
   -2.1434    0.0458    0.0000 C   0  0  0  0  0  0  0  0  0  0  0  0
   -1.4289   -1.1917    0.0000 O   0  0  0  0  0  0  0  0  0  0  0  0
  1  2  1  0  0  0  0
  2  3  2  0  0  0  0
  2  4  1  0  0  0  0
  4  5  1  0  0  0  0
  6  5  1  0  0  0  0
  7  6  2  0  0  0  0
  8  7  1  0  0  0  0
  8  9  1  0  0  0  0
  9 10  1  0  0  0  0
  9 11  2  0  0  0  0
 12  8  2  0  0  0  0
 13 12  1  0  0  0  0
  5 13  2  0  0  0  0
 13 14  1  0  0  0  0
 14 15  1  0  0  0  0
 15 16  1  0  0  0  0
 16 17  1  0  0  0  0
 16 18  2  0  0  0  0
M  END
> <RowID>
218

> <Original_SMILES>
CC(=O)OC1C=CC(=CC=1COC(C)=O)C(C)=O

> <Canonical_QSARr>
CC(=O)OC1C=CC(=CC=1COC(C)=O)C(C)=O

> <InChI_Code_QSARr>
InChI=1S/C13H14O5/c1-8(14)11-4-5-13(18-10(3)16)12(6-11)7-17-9(2)15/h4-6H,7H2,1-3H3

> <InChI Key_QSARr>
FMKMEWWKBLDKST-UHFFFAOYSA-N

> <Salt_Solvent>


> <Salt_Solvent_ID>
0

> <Number of connected components>
1

$$$$
Molecule_219
  Mrv2316 01072400032D          

 34 34  0  0  0  0            999 V2000
    1.9333   -4.8457    0.0000 C   0  0  0  0  0  0  0  0  0  0  0  0
    1.9333   -5.6707    0.0000 C   0  0  0  0  0  0  0  0  0  0  0  0
    1.2188   -6.0832    0.0000 C   0  0  0  0  0  0  0  0  0  0  0  0
    0.5043   -5.6707    0.0000 C   0  0  0  0  0  0  0  0  0  0  0  0
   -0.2101   -5.2582    0.0000 C   0  0  0  0  0  0  0  0  0  0  0  0
    0.0918   -6.3852    0.0000 C   0  0  0  0  0  0  0  0  0  0  0  0
    0.9168   -4.9562    0.0000 C   0  0  0  0  0  0  0  0  0  0  0  0
    2.6477   -6.0832    0.0000 C   0  0  0  0  0  0  0  0  0  0  0  0
    3.3622   -5.6707    0.0000 C   0  0  0  0  0  0  0  0  0  0  0  0
    3.3622   -4.8457    0.0000 O   0  0  0  0  0  0  0  0  0  0  0  0
    4.0767   -6.0832    0.0000 O   0  0  0  0  0  0  0  0  0  0  0  0
    4.7912   -5.6707    0.0000 C   0  0  0  0  0  0  0  0  0  0  0  0
    5.5056   -6.0832    0.0000 C   0  0  0  0  0  0  0  0  0  0  0  0
    6.2201   -5.6707    0.0000 N   0  0  0  0  0  0  0  0  0  0  0  0
    6.9346   -6.0832    0.0000 C   0  0  0  0  0  0  0  0  0  0  0  0
    6.4043   -6.7152    0.0000 C   0  0  0  0  0  0  0  0  0  0  0  0
    7.4649   -6.7152    0.0000 C   0  0  0  0  0  0  0  0  0  0  0  0
    7.6490   -5.6707    0.0000 C   0  0  0  0  0  0  0  0  0  0  0  0
    7.6490   -4.8457    0.0000 C   0  0  0  0  0  0  0  0  0  0  0  0
    8.3635   -4.4332    0.0000 O   0  0  0  0  0  0  0  0  0  0  0  0
    8.3635   -3.6082    0.0000 C   0  0  0  0  0  0  0  0  0  0  0  0
    7.6490   -3.1957    0.0000 O   0  0  0  0  0  0  0  0  0  0  0  0
    9.0780   -3.1957    0.0000 C   0  0  0  0  0  0  0  0  0  0  0  0
    9.0780   -2.3707    0.0000 C   0  0  0  0  0  0  0  0  0  0  0  0
    8.3635   -1.9582    0.0000 C   0  0  0  0  0  0  0  0  0  0  0  0
    9.7924   -1.9582    0.0000 C   0  0  0  0  0  0  0  0  0  0  0  0
    9.7924   -1.1332    0.0000 C   0  0  0  0  0  0  0  0  0  0  0  0
    9.7924   -0.3082    0.0000 C   0  0  0  0  0  0  0  0  0  0  0  0
   10.6174   -1.1332    0.0000 C   0  0  0  0  0  0  0  0  0  0  0  0
    8.9674   -1.1332    0.0000 C   0  0  0  0  0  0  0  0  0  0  0  0
    6.9346   -4.4332    0.0000 C   0  0  0  0  0  0  0  0  0  0  0  0
    6.2201   -4.8457    0.0000 C   0  0  0  0  0  0  0  0  0  0  0  0
    5.7829   -4.1461    0.0000 C   0  0  0  0  0  0  0  0  0  0  0  0
    5.3956   -4.8169    0.0000 C   0  0  0  0  0  0  0  0  0  0  0  0
  1  2  1  0  0  0  0
  2  3  1  0  0  0  0
  3  4  1  0  0  0  0
  4  5  1  0  0  0  0
  4  6  1  0  0  0  0
  4  7  1  0  0  0  0
  2  8  1  0  0  0  0
  8  9  1  0  0  0  0
  9 10  2  0  0  0  0
  9 11  1  0  0  0  0
 11 12  1  0  0  0  0
 12 13  1  0  0  0  0
 13 14  1  0  0  0  0
 15 14  1  0  0  0  0
 15 16  1  0  0  0  0
 15 17  1  0  0  0  0
 18 15  1  0  0  0  0
 19 18  1  0  0  0  0
 19 20  1  0  0  0  0
 20 21  1  0  0  0  0
 21 22  2  0  0  0  0
 21 23  1  0  0  0  0
 23 24  1  0  0  0  0
 24 25  1  0  0  0  0
 24 26  1  0  0  0  0
 26 27  1  0  0  0  0
 27 28  1  0  0  0  0
 27 29  1  0  0  0  0
 27 30  1  0  0  0  0
 31 19  1  0  0  0  0
 32 31  1  0  0  0  0
 14 32  1  0  0  0  0
 32 33  1  0  0  0  0
 32 34  1  0  0  0  0
M  END
> <RowID>
219

> <Original_SMILES>
CC(CC(C)(C)C)CC(=O)OCCN1C(C)(C)CC(CC1(C)C)OC(=O)CC(C)CC(C)(C)C

> <Canonical_QSARr>
CC(CC(C)(C)C)CC(=O)OCCN1C(C)(C)CC(CC1(C)C)OC(=O)CC(C)CC(C)(C)C

> <InChI_Code_QSARr>
InChI=1S/C29H55NO4/c1-21(17-26(3,4)5)15-24(31)33-14-13-30-28(9,10)19-23(20-29(30,11)12)34-25(32)16-22(2)18-27(6,7)8/h21-23H,13-20H2,1-12H3

> <InChI Key_QSARr>
HAFKWVXPFIPBEJ-UHFFFAOYSA-N

> <Salt_Solvent>


> <Salt_Solvent_ID>
0

> <Number of connected components>
1

$$$$
Molecule_220
  Mrv2316 01072400032D          

  6  5  0  0  0  0            999 V2000
    2.4750   -1.4289    0.0000 N   0  0  0  0  0  0  0  0  0  0  0  0
    2.0625   -0.7145    0.0000 N   0  0  0  0  0  0  0  0  0  0  0  0
    1.2375   -0.7145    0.0000 C   0  0  0  0  0  0  0  0  0  0  0  0
    0.8250   -1.4289    0.0000 O   0  0  0  0  0  0  0  0  0  0  0  0
    0.8250    0.0000    0.0000 N   0  0  0  0  0  0  0  0  0  0  0  0
    0.0000    0.0000    0.0000 N   0  0  0  0  0  0  0  0  0  0  0  0
  1  2  1  0  0  0  0
  2  3  1  0  0  0  0
  3  4  2  0  0  0  0
  3  5  1  0  0  0  0
  5  6  1  0  0  0  0
M  END
> <RowID>
220

> <Original_SMILES>
NNC(=O)NN

> <Canonical_QSARr>
NNC(=O)NN

> <InChI_Code_QSARr>
InChI=1S/CH6N4O/c2-4-1(6)5-3/h2-3H2,(H2,4,5,6)

> <InChI Key_QSARr>
XEVRDFDBXJMZFG-UHFFFAOYSA-N

> <Salt_Solvent>


> <Salt_Solvent_ID>
0

> <Number of connected components>
1

$$$$
Molecule_221
  Mrv2316 01072400032D          

 21 23  0  0  0  0            999 V2000
    4.9279    2.2564    0.0000 C   0  0  0  0  0  0  0  0  0  0  0  0
    4.2135    2.6689    0.0000 C   0  0  0  0  0  0  0  0  0  0  0  0
    4.2135    3.4939    0.0000 C   0  0  0  0  0  0  0  0  0  0  0  0
    3.4990    2.2564    0.0000 O   0  0  0  0  0  0  0  0  0  0  0  0
    2.7845    2.6689    0.0000 C   0  0  0  0  0  0  0  0  0  0  0  0
    2.7845    3.4939    0.0000 O   0  0  0  0  0  0  0  0  0  0  0  0
    2.0701    2.2564    0.0000 C   0  0  0  0  0  0  0  0  0  0  0  0
    1.3556    2.6689    0.0000 C   0  0  0  0  0  0  0  0  0  0  0  0
    0.6411    2.2564    0.0000 C   0  0  0  0  0  0  0  0  0  0  0  0
    0.6411    1.4314    0.0000 C   0  0  0  0  0  0  0  0  0  0  0  0
   -0.1435    1.1765    0.0000 C   0  0  0  0  0  0  0  0  0  0  0  0
   -0.6284    1.8439    0.0000 C   0  0  0  0  0  0  0  0  0  0  0  0
   -0.1435    2.5113    0.0000 N   0  0  0  0  0  0  0  0  0  0  0  0
   -0.3984    3.2960    0.0000 C   0  0  0  0  0  0  0  0  0  0  0  0
   -0.3984    0.3918    0.0000 C   0  0  0  0  0  0  0  0  0  0  0  0
   -1.1831    0.1369    0.0000 C   0  0  0  0  0  0  0  0  0  0  0  0
   -1.1831   -0.6881    0.0000 C   0  0  0  0  0  0  0  0  0  0  0  0
   -0.3984   -0.9430    0.0000 C   0  0  0  0  0  0  0  0  0  0  0  0
    0.0865   -0.2756    0.0000 C   0  0  0  0  0  0  0  0  0  0  0  0
    1.3556    1.0189    0.0000 C   0  0  0  0  0  0  0  0  0  0  0  0
    2.0701    1.4314    0.0000 C   0  0  0  0  0  0  0  0  0  0  0  0
  1  2  1  0  0  0  0
  2  3  1  0  0  0  0
  2  4  1  0  0  0  0
  4  5  1  0  0  0  0
  5  6  2  0  0  0  0
  5  7  1  0  0  0  0
  8  7  2  0  0  0  0
  9  8  1  0  0  0  0
  9 10  2  0  0  0  0
 10 11  1  0  0  0  0
 11 12  2  0  0  0  0
 12 13  1  0  0  0  0
 13  9  1  0  0  0  0
 13 14  1  0  0  0  0
 11 15  1  0  0  0  0
 16 15  1  0  0  0  0
 17 16  1  0  0  0  0
 18 17  1  0  0  0  0
 19 18  1  0  0  0  0
 15 19  1  0  0  0  0
 20 10  1  0  0  0  0
 21 20  2  0  0  0  0
  7 21  1  0  0  0  0
M  END
> <RowID>
221

> <Original_SMILES>
CC(C)OC(=O)C1=CC2=C(C=C1)C(=CN2C)C1CCCC1

> <Canonical_QSARr>
CC(C)OC(=O)C1=CC2=C(C=C1)C(=CN2C)C1CCCC1

> <InChI_Code_QSARr>
InChI=1S/C18H23NO2/c1-12(2)21-18(20)14-8-9-15-16(13-6-4-5-7-13)11-19(3)17(15)10-14/h8-13H,4-7H2,1-3H3

> <InChI Key_QSARr>
UQQPAWZVYVDUQH-UHFFFAOYSA-N

> <Salt_Solvent>


> <Salt_Solvent_ID>
0

> <Number of connected components>
1

$$$$
Molecule_222
  Mrv2316 01072400032D          

 84 89  0  0  0  0            999 V2000
   -0.0000   -2.4750    0.0000 O   0  0  0  0  0  0  0  0  0  0  0  0
    0.7145   -2.8875    0.0000 S   0  0  0  0  0  0  0  0  0  0  0  0
    1.1270   -2.1730    0.0000 O   0  0  0  0  0  0  0  0  0  0  0  0
    0.3020   -3.6020    0.0000 O   0  0  0  0  0  0  0  0  0  0  0  0
    1.4289   -3.3000    0.0000 C   0  0  0  0  0  0  0  0  0  0  0  0
    2.1434   -2.8875    0.0000 C   0  0  0  0  0  0  0  0  0  0  0  0
    2.1434   -2.0625    0.0000 C   0  0  0  0  0  0  0  0  0  0  0  0
    2.8579   -1.6500    0.0000 C   0  0  0  0  0  0  0  0  0  0  0  0
    2.8579   -0.8250    0.0000 C   0  0  0  0  0  0  0  0  0  0  0  0
    3.5723   -0.4125    0.0000 C   0  0  0  0  0  0  0  0  0  0  0  0
    4.2868   -0.8250    0.0000 S   0  0  0  0  0  0  0  0  0  0  0  0
    4.6993   -0.1105    0.0000 O   0  0  0  0  0  0  0  0  0  0  0  0
    3.8743   -1.5395    0.0000 O   0  0  0  0  0  0  0  0  0  0  0  0
    5.0013   -1.2375    0.0000 O   0  0  0  0  0  0  0  0  0  0  0  0
    3.5723    0.4125    0.0000 C   0  0  0  0  0  0  0  0  0  0  0  0
    2.8579    0.8250    0.0000 C   0  0  0  0  0  0  0  0  0  0  0  0
    2.8579    1.6500    0.0000 N   0  0  0  0  0  0  0  0  0  0  0  0
    3.5723    2.0625    0.0000 C   0  0  0  0  0  0  0  0  0  0  0  0
    3.5723    2.8875    0.0000 N   0  0  0  0  0  0  0  0  0  0  0  0
    4.2868    3.3000    0.0000 C   0  0  0  0  0  0  0  0  0  0  0  0
    4.2868    4.1250    0.0000 N   0  0  0  0  0  0  0  0  0  0  0  0
    5.0013    4.5375    0.0000 C   0  0  0  0  0  0  0  0  0  0  0  0
    5.7158    4.1250    0.0000 C   0  0  0  0  0  0  0  0  0  0  0  0
    6.4302    4.5375    0.0000 O   0  0  0  0  0  0  0  0  0  0  0  0
    5.7158    3.3000    0.0000 C   0  0  0  0  0  0  0  0  0  0  0  0
    3.5723    4.5375    0.0000 C   0  0  0  0  0  0  0  0  0  0  0  0
    2.8579    4.1250    0.0000 C   0  0  0  0  0  0  0  0  0  0  0  0
    2.1434    4.5375    0.0000 O   0  0  0  0  0  0  0  0  0  0  0  0
    2.8579    3.3000    0.0000 C   0  0  0  0  0  0  0  0  0  0  0  0
    5.0013    2.8875    0.0000 N   0  0  0  0  0  0  0  0  0  0  0  0
    5.0013    2.0625    0.0000 C   0  0  0  0  0  0  0  0  0  0  0  0
    5.7158    1.6500    0.0000 N   0  0  0  0  0  0  0  0  0  0  0  0
    6.4302    2.0625    0.0000 C   0  0  0  0  0  0  0  0  0  0  0  0
    7.1447    1.6500    0.0000 C   0  0  0  0  0  0  0  0  0  0  0  0
    7.1447    0.8250    0.0000 S   0  0  0  0  0  0  0  0  0  0  0  0
    7.1447    0.0000    0.0000 O   0  0  0  0  0  0  0  0  0  0  0  0
    7.9697    0.8250    0.0000 O   0  0  0  0  0  0  0  0  0  0  0  0
    6.3197    0.8250    0.0000 O   0  0  0  0  0  0  0  0  0  0  0  0
    7.8592    2.0625    0.0000 C   0  0  0  0  0  0  0  0  0  0  0  0
    7.8592    2.8875    0.0000 C   0  0  0  0  0  0  0  0  0  0  0  0
    7.1447    3.3000    0.0000 C   0  0  0  0  0  0  0  0  0  0  0  0
    7.1447    4.1250    0.0000 S   0  0  0  0  0  0  0  0  0  0  0  0
    7.1447    4.9500    0.0000 O   0  0  0  0  0  0  0  0  0  0  0  0
    6.3197    4.1250    0.0000 O   0  0  0  0  0  0  0  0  0  0  0  0
    7.9697    4.1250    0.0000 O   0  0  0  0  0  0  0  0  0  0  0  0
    6.4302    2.8875    0.0000 C   0  0  0  0  0  0  0  0  0  0  0  0
    4.2868    1.6500    0.0000 N   0  0  0  0  0  0  0  0  0  0  0  0
    2.1434    0.4125    0.0000 C   0  0  0  0  0  0  0  0  0  0  0  0
    2.1434   -0.4125    0.0000 C   0  0  0  0  0  0  0  0  0  0  0  0
    2.8579   -3.3000    0.0000 C   0  0  0  0  0  0  0  0  0  0  0  0
    2.8579   -4.1250    0.0000 C   0  0  0  0  0  0  0  0  0  0  0  0
    2.1434   -4.5375    0.0000 C   0  0  0  0  0  0  0  0  0  0  0  0
    2.1434   -5.3625    0.0000 N   0  0  0  0  0  0  0  0  0  0  0  0
    1.4289   -5.7750    0.0000 C   0  0  0  0  0  0  0  0  0  0  0  0
    1.4289   -6.6000    0.0000 N   0  0  0  0  0  0  0  0  0  0  0  0
    0.7145   -7.0125    0.0000 C   0  0  0  0  0  0  0  0  0  0  0  0
    0.7145   -7.8375    0.0000 N   0  0  0  0  0  0  0  0  0  0  0  0
    1.4289   -8.2500    0.0000 C   0  0  0  0  0  0  0  0  0  0  0  0
    1.4289   -9.0750    0.0000 C   0  0  0  0  0  0  0  0  0  0  0  0
    0.7145   -9.4875    0.0000 S   0  0  0  0  0  0  0  0  0  0  0  0
    0.3020   -8.7730    0.0000 O   0  0  0  0  0  0  0  0  0  0  0  0
   -0.0000   -9.9000    0.0000 O   0  0  0  0  0  0  0  0  0  0  0  0
    1.1270  -10.2020    0.0000 O   0  0  0  0  0  0  0  0  0  0  0  0
    2.1434   -9.4875    0.0000 C   0  0  0  0  0  0  0  0  0  0  0  0
    2.8579   -9.0750    0.0000 C   0  0  0  0  0  0  0  0  0  0  0  0
    2.8579   -8.2500    0.0000 C   0  0  0  0  0  0  0  0  0  0  0  0
    3.5723   -7.8375    0.0000 S   0  0  0  0  0  0  0  0  0  0  0  0
    3.9848   -8.5520    0.0000 O   0  0  0  0  0  0  0  0  0  0  0  0
    3.1598   -7.1230    0.0000 O   0  0  0  0  0  0  0  0  0  0  0  0
    4.2868   -7.4250    0.0000 O   0  0  0  0  0  0  0  0  0  0  0  0
    2.1434   -7.8375    0.0000 C   0  0  0  0  0  0  0  0  0  0  0  0
   -0.0000   -6.6000    0.0000 N   0  0  0  0  0  0  0  0  0  0  0  0
   -0.0000   -5.7750    0.0000 C   0  0  0  0  0  0  0  0  0  0  0  0
   -0.7145   -5.3625    0.0000 N   0  0  0  0  0  0  0  0  0  0  0  0
   -0.7145   -4.5375    0.0000 C   0  0  0  0  0  0  0  0  0  0  0  0
   -0.0000   -4.1250    0.0000 C   0  0  0  0  0  0  0  0  0  0  0  0
   -0.0000   -3.3000    0.0000 C   0  0  0  0  0  0  0  0  0  0  0  0
    0.7145   -4.5375    0.0000 O   0  0  0  0  0  0  0  0  0  0  0  0
   -1.4290   -5.7750    0.0000 C   0  0  0  0  0  0  0  0  0  0  0  0
   -1.4290   -6.6000    0.0000 C   0  0  0  0  0  0  0  0  0  0  0  0
   -2.1434   -7.0125    0.0000 O   0  0  0  0  0  0  0  0  0  0  0  0
   -0.7145   -7.0125    0.0000 C   0  0  0  0  0  0  0  0  0  0  0  0
    0.7145   -5.3625    0.0000 N   0  0  0  0  0  0  0  0  0  0  0  0
    1.4289   -4.1250    0.0000 C   0  0  0  0  0  0  0  0  0  0  0  0
  1  2  1  0  0  0  0
  2  3  2  0  0  0  0
  2  4  2  0  0  0  0
  2  5  1  0  0  0  0
  6  5  1  0  0  0  0
  7  6  1  4  0  0  0
  7  8  2  0  0  0  0
  8  9  1  0  0  0  0
 10  9  2  0  0  0  0
 10 11  1  0  0  0  0
 11 12  1  0  0  0  0
 11 13  2  0  0  0  0
 11 14  2  0  0  0  0
 15 10  1  0  0  0  0
 16 15  2  0  0  0  0
 16 17  1  0  0  0  0
 17 18  1  0  0  0  0
 19 18  2  0  0  0  0
 20 19  1  0  0  0  0
 20 21  1  0  0  0  0
 21 22  1  0  0  0  0
 22 23  1  0  0  0  0
 23 24  1  0  0  0  0
 23 25  1  0  0  0  0
 21 26  1  0  0  0  0
 26 27  1  0  0  0  0
 27 28  1  0  0  0  0
 27 29  1  0  0  0  0
 30 20  2  0  0  0  0
 31 30  1  0  0  0  0
 31 32  1  0  0  0  0
 32 33  1  0  0  0  0
 34 33  2  0  0  0  0
 34 35  1  0  0  0  0
 35 36  1  0  0  0  0
 35 37  2  0  0  0  0
 35 38  2  0  0  0  0
 39 34  1  0  0  0  0
 40 39  2  0  0  0  0
 41 40  1  0  0  0  0
 41 42  1  0  0  0  0
 42 43  1  0  0  0  0
 42 44  2  0  0  0  0
 42 45  2  0  0  0  0
 46 41  2  0  0  0  0
 33 46  1  0  0  0  0
 47 31  2  0  0  0  0
 18 47  1  0  0  0  0
 48 16  1  0  0  0  0
 49 48  2  0  0  0  0
  9 49  1  0  0  0  0
 50  6  2  0  0  0  0
 51 50  1  0  0  0  0
 52 51  2  0  0  0  0
 52 53  1  0  0  0  0
 53 54  1  0  0  0  0
 55 54  1  0  0  0  0
 56 55  2  0  0  0  0
 56 57  1  0  0  0  0
 57 58  1  0  0  0  0
 59 58  2  0  0  0  0
 59 60  1  0  0  0  0
 60 61  1  0  0  0  0
 60 62  2  0  0  0  0
 60 63  2  0  0  0  0
 64 59  1  0  0  0  0
 65 64  2  0  0  0  0
 66 65  1  0  0  0  0
 66 67  1  0  0  0  0
 67 68  1  0  0  0  0
 67 69  2  0  0  0  0
 67 70  2  0  0  0  0
 71 66  2  0  0  0  0
 58 71  1  0  0  0  0
 72 56  1  0  0  0  0
 73 72  2  0  0  0  0
 73 74  1  0  0  0  0
 74 75  1  0  0  0  0
 75 76  1  0  0  0  0
 76 77  1  0  0  0  0
 76 78  1  0  0  0  0
 74 79  1  0  0  0  0
 79 80  1  0  0  0  0
 80 81  1  0  0  0  0
 80 82  1  0  0  0  0
 83 73  1  0  0  0  0
 54 83  2  0  0  0  0
 84 52  1  0  0  0  0
  5 84  2  0  0  0  0
M  END
> <RowID>
222

> <Original_SMILES>
[Na+].[Na+].[Na+].[Na+].[Na+].[Na+].CC(O)CN(CC(C)O)C1=NC(NC2=CC(=C(C=CC3C=CC(=CC=3S([O-])(=O)=O)NC3=NC(NC4C=C(C=CC=4S([O-])(=O)=O)S([O-])(=O)=O)=NC(=N3)N(CC(C)O)CC(C)O)C=C2)S([O-])(=O)=O)=NC(NC2C=C(C=CC=2S([O-])(=O)=O)S([O-])(=O)=O)=N1

> <Canonical_QSARr>
CC(O)CN(CC(C)O)C1N=C(NC2C=C(C(C=CC3C=CC(=CC=3S(O)(=O)=O)NC3=NC(=NC(NC4C=C(C=CC=4S(O)(=O)=O)S(O)(=O)=O)=N3)N(CC(C)O)CC(C)O)=CC=2)S(O)(=O)=O)N=C(NC2C=C(C=CC=2S(O)(=O)=O)S(O)(=O)=O)N=1

> <InChI_Code_QSARr>
InChI=1S/C44H52N12O22S6/c1-23(57)19-55(20-24(2)58)43-51-39(49-41(53-43)47-33-17-31(79(61,62)63)11-13-35(33)81(67,68)69)45-29-9-7-27(37(15-29)83(73,74)75)5-6-28-8-10-30(16-38(28)84(76,77)78)46-40-50-42(54-44(52-40)56(21-25(3)59)22-26(4)60)48-34-18-32(80(64,65)66)12-14-36(34)82(70,71)72/h5-18,23-26,57-60H,19-22H2,1-4H3,(H,61,62,63)(H,64,65,66)(H,67,68,69)(H,70,71,72)(H,73,74,75)(H,76,77,78)(H2,45,47,49,51,53)(H2,46,48,50,52,54)

> <InChI Key_QSARr>
GGZZBXBLEDKGIP-UHFFFAOYSA-N

> <Salt_Solvent>
[Na+]

> <Salt_Solvent_ID>
110

> <Number of connected components>
7

$$$$
Molecule_223
  Mrv2316 01072400032D          

 21 22  0  0  0  0            999 V2000
   -2.1434   -0.4125    0.0000 C   0  0  0  0  0  0  0  0  0  0  0  0
   -2.8579   -0.0000    0.0000 C   0  0  0  0  0  0  0  0  0  0  0  0
   -3.5724   -0.4125    0.0000 C   0  0  0  0  0  0  0  0  0  0  0  0
   -4.2868   -0.0000    0.0000 C   0  0  0  0  0  0  0  0  0  0  0  0
   -3.5724   -1.2375    0.0000 C   0  0  0  0  0  0  0  0  0  0  0  0
   -1.4289   -0.0000    0.0000 N   0  0  0  0  0  0  0  0  0  0  0  0
   -0.7145   -0.4125    0.0000 N   0  0  0  0  0  0  0  0  0  0  0  0
    0.0000    0.0000    0.0000 C   0  0  0  0  0  0  0  0  0  0  0  0
    0.0000    0.8250    0.0000 O   0  0  0  0  0  0  0  0  0  0  0  0
    0.7145   -0.4125    0.0000 C   0  0  0  0  0  0  0  0  0  0  0  0
    1.4289    0.0000    0.0000 C   0  0  0  0  0  0  0  0  0  0  0  0
    2.1434   -0.4125    0.0000 C   0  0  0  0  0  0  0  0  0  0  0  0
    2.8579    0.0000    0.0000 C   0  0  0  0  0  0  0  0  0  0  0  0
    3.5724   -0.4125    0.0000 C   0  0  0  0  0  0  0  0  0  0  0  0
    3.5724   -1.2375    0.0000 C   0  0  0  0  0  0  0  0  0  0  0  0
    2.8579   -1.6500    0.0000 C   0  0  0  0  0  0  0  0  0  0  0  0
    2.1434   -1.2375    0.0000 C   0  0  0  0  0  0  0  0  0  0  0  0
    1.4289   -1.6500    0.0000 C   0  0  0  0  0  0  0  0  0  0  0  0
    0.7145   -1.2375    0.0000 C   0  0  0  0  0  0  0  0  0  0  0  0
    0.0000   -1.6500    0.0000 O   0  0  0  0  0  0  0  0  0  0  0  0
   -2.1434   -1.2375    0.0000 C   0  0  0  0  0  0  0  0  0  0  0  0
  1  2  1  0  0  0  0
  2  3  1  0  0  0  0
  3  4  1  0  0  0  0
  3  5  1  0  0  0  0
  6  1  1  4  0  0  0
  6  7  2  0  0  0  0
  7  8  1  0  0  0  0
  8  9  2  0  0  0  0
  8 10  1  0  0  0  0
 11 10  2  0  0  0  0
 12 11  1  0  0  0  0
 12 13  1  0  0  0  0
 13 14  2  0  0  0  0
 14 15  1  0  0  0  0
 15 16  2  0  0  0  0
 16 17  1  0  0  0  0
 17 12  2  0  0  0  0
 18 17  1  0  0  0  0
 19 18  2  0  0  0  0
 10 19  1  0  0  0  0
 19 20  1  0  0  0  0
  1 21  1  0  0  0  0
M  END
> <RowID>
223

> <Original_SMILES>
CC(CC(C)C)=NNC(=O)C1=CC2=CC=CC=C2C=C1O

> <Canonical_QSARr>
CC(C)CC(C)N=NC(=O)C1=CC2C=CC=CC=2C=C1O

> <InChI_Code_QSARr>
InChI=1S/C17H20N2O2/c1-11(2)8-12(3)18-19-17(21)15-9-13-6-4-5-7-14(13)10-16(15)20/h4-7,9-12,20H,8H2,1-3H3

> <InChI Key_QSARr>
URVIWGSGPYKXES-UHFFFAOYSA-N

> <Salt_Solvent>


> <Salt_Solvent_ID>
0

> <Number of connected components>
1

$$$$
Molecule_224
  Mrv2316 01072400032D          

 23 24  0  0  0  0            999 V2000
    1.2115   -2.1701    0.0000 C   0  0  0  0  0  0  0  0  0  0  0  0
    0.4970   -2.5826    0.0000 C   0  0  0  0  0  0  0  0  0  0  0  0
    0.4970   -3.4076    0.0000 C   0  0  0  0  0  0  0  0  0  0  0  0
   -0.2174   -3.8201    0.0000 C   0  0  0  0  0  0  0  0  0  0  0  0
   -0.9319   -3.4076    0.0000 C   0  0  0  0  0  0  0  0  0  0  0  0
   -0.9319   -2.5826    0.0000 C   0  0  0  0  0  0  0  0  0  0  0  0
   -0.2174   -2.1701    0.0000 C   0  0  0  0  0  0  0  0  0  0  0  0
   -0.2174   -1.3451    0.0000 O   0  0  0  0  0  0  0  0  0  0  0  0
   -0.9319   -0.9326    0.0000 C   0  0  0  0  0  0  0  0  0  0  0  0
   -0.9319   -0.1076    0.0000 C   0  0  0  0  0  0  0  0  0  0  0  0
   -0.2174    0.3049    0.0000 C   0  0  0  0  0  0  0  0  0  0  0  0
   -0.2174    1.1299    0.0000 C   0  0  0  0  0  0  0  0  0  0  0  0
   -0.9319    1.5424    0.0000 C   0  0  0  0  0  0  0  0  0  0  0  0
   -1.6464    1.1299    0.0000 C   0  0  0  0  0  0  0  0  0  0  0  0
   -1.6464    0.3049    0.0000 C   0  0  0  0  0  0  0  0  0  0  0  0
   -2.3609   -0.1076    0.0000 C   0  0  0  0  0  0  0  0  0  0  0  0
   -3.0753    0.3049    0.0000 N   0  0  0  0  0  0  0  0  0  0  0  0
   -3.7898   -0.1076    0.0000 O   0  0  0  0  0  0  0  0  0  0  0  0
   -3.7898   -0.9326    0.0000 C   0  0  0  0  0  0  0  0  0  0  0  0
   -2.3609   -0.9326    0.0000 C   0  0  0  0  0  0  0  0  0  0  0  0
   -3.0753   -1.3451    0.0000 O   0  0  0  0  0  0  0  0  0  0  0  0
   -1.6464   -1.3451    0.0000 O   0  0  0  0  0  0  0  0  0  0  0  0
   -1.6464   -2.1701    0.0000 C   0  0  0  0  0  0  0  0  0  0  0  0
  1  2  1  0  0  0  0
  3  2  1  0  0  0  0
  4  3  2  0  0  0  0
  5  4  1  0  0  0  0
  6  5  2  0  0  0  0
  7  6  1  0  0  0  0
  2  7  2  0  0  0  0
  7  8  1  0  0  0  0
  8  9  1  0  0  0  0
  9 10  1  0  0  0  0
 11 10  1  0  0  0  0
 12 11  2  0  0  0  0
 13 12  1  0  0  0  0
 14 13  2  0  0  0  0
 15 14  1  0  0  0  0
 10 15  2  0  0  0  0
 15 16  1  0  0  0  0
 16 17  2  0  0  0  0
 17 18  1  4  0  0  0
 18 19  1  0  0  0  0
 16 20  1  0  0  0  0
 20 21  2  0  0  0  0
 20 22  1  0  0  0  0
 22 23  1  0  0  0  0
M  END
> <RowID>
224

> <Original_SMILES>
CC1C=CC=CC=1OCC1C=CC=CC=1C(=NOC)C(=O)OC

> <Canonical_QSARr>
CC1C=CC=CC=1OCC1C=CC=CC=1C(=NOC)C(=O)OC

> <InChI_Code_QSARr>
InChI=1S/C18H19NO4/c1-13-8-4-7-11-16(13)23-12-14-9-5-6-10-15(14)17(19-22-3)18(20)21-2/h4-11H,12H2,1-3H3

> <InChI Key_QSARr>
ZOTBXTZVPHCKPN-UHFFFAOYSA-N

> <Salt_Solvent>


> <Salt_Solvent_ID>
0

> <Number of connected components>
1

$$$$
Molecule_225
  Mrv2316 01072400032D          

  4  3  0  0  0  0            999 V2000
    0.8250   -0.0000    0.0000 C   0  0  0  0  0  0  0  0  0  0  0  0
    1.2375    0.7145    0.0000 O   0  0  0  0  0  0  0  0  0  0  0  0
    1.2375   -0.7145    0.0000 O   0  0  0  0  0  0  0  0  0  0  0  0
    0.0000   -0.0000    0.0000 O   0  0  0  0  0  0  0  0  0  0  0  0
  1  2  1  0  0  0  0
  1  3  2  0  0  0  0
  1  4  1  0  0  0  0
M  END
> <RowID>
225

> <Original_SMILES>
[Na+].[Na+].[Na+].[O-]C([O-])=O.[O-]C(O)=O

> <Canonical_QSARr>
OC(O)=O

> <InChI_Code_QSARr>
InChI=1S/CH2O3/c2-1(3)4/h(H2,2,3,4)

> <InChI Key_QSARr>
BVKZGUZCCUSVTD-UHFFFAOYSA-N

> <Salt_Solvent>
[O-]C(=O)O.[Na+]

> <Salt_Solvent_ID>
945

> <Number of connected components>
5

$$$$
Molecule_226
  Mrv2316 01072400032D          

 25 26  0  0  0  0            999 V2000
    1.8576   -4.0425    0.0000 C   0  0  0  0  0  0  0  0  0  0  0  0
    1.1431   -3.6300    0.0000 C   0  0  0  0  0  0  0  0  0  0  0  0
    1.5556   -2.9155    0.0000 C   0  0  0  0  0  0  0  0  0  0  0  0
    0.7306   -4.3445    0.0000 C   0  0  0  0  0  0  0  0  0  0  0  0
    0.4287   -3.2175    0.0000 C   0  0  0  0  0  0  0  0  0  0  0  0
    0.4287   -2.3925    0.0000 C   0  0  0  0  0  0  0  0  0  0  0  0
   -0.2858   -1.9800    0.0000 C   0  0  0  0  0  0  0  0  0  0  0  0
   -0.2858   -1.1550    0.0000 C   0  0  0  0  0  0  0  0  0  0  0  0
   -1.0003   -2.3925    0.0000 C   0  0  0  0  0  0  0  0  0  0  0  0
   -1.0003   -3.2175    0.0000 C   0  0  0  0  0  0  0  0  0  0  0  0
   -1.7147   -3.6300    0.0000 C   0  0  0  0  0  0  0  0  0  0  0  0
   -2.4292   -3.2175    0.0000 C   0  0  0  0  0  0  0  0  0  0  0  0
   -2.4292   -2.3925    0.0000 C   0  0  0  0  0  0  0  0  0  0  0  0
   -3.1437   -1.9800    0.0000 C   0  0  0  0  0  0  0  0  0  0  0  0
   -3.1437   -1.1550    0.0000 C   0  0  0  0  0  0  0  0  0  0  0  0
   -3.8581   -2.3925    0.0000 C   0  0  0  0  0  0  0  0  0  0  0  0
   -3.8581   -3.2175    0.0000 C   0  0  0  0  0  0  0  0  0  0  0  0
   -4.5726   -3.6300    0.0000 C   0  0  0  0  0  0  0  0  0  0  0  0
   -5.2871   -4.0425    0.0000 C   0  0  0  0  0  0  0  0  0  0  0  0
   -4.9851   -2.9155    0.0000 C   0  0  0  0  0  0  0  0  0  0  0  0
   -4.1601   -4.3445    0.0000 C   0  0  0  0  0  0  0  0  0  0  0  0
   -3.1437   -3.6300    0.0000 C   0  0  0  0  0  0  0  0  0  0  0  0
   -3.1437   -4.4550    0.0000 O   0  0  0  0  0  0  0  0  0  0  0  0
   -0.2858   -3.6300    0.0000 C   0  0  0  0  0  0  0  0  0  0  0  0
   -0.2858   -4.4550    0.0000 O   0  0  0  0  0  0  0  0  0  0  0  0
  1  2  1  0  0  0  0
  2  3  1  0  0  0  0
  2  4  1  0  0  0  0
  2  5  1  0  0  0  0
  6  5  2  0  0  0  0
  7  6  1  0  0  0  0
  7  8  1  0  0  0  0
  9  7  2  0  0  0  0
 10  9  1  0  0  0  0
 10 11  1  0  0  0  0
 11 12  1  0  0  0  0
 13 12  2  0  0  0  0
 14 13  1  0  0  0  0
 14 15  1  0  0  0  0
 16 14  2  0  0  0  0
 17 16  1  0  0  0  0
 17 18  1  0  0  0  0
 18 19  1  0  0  0  0
 18 20  1  0  0  0  0
 18 21  1  0  0  0  0
 22 17  2  0  0  0  0
 12 22  1  0  0  0  0
 22 23  1  0  0  0  0
 24 10  2  0  0  0  0
  5 24  1  0  0  0  0
 24 25  1  0  0  0  0
M  END
> <RowID>
226

> <Original_SMILES>
CC(C)(C)C1=CC(C)=CC(CC2=CC(C)=CC(=C2O)C(C)(C)C)=C1O

> <Canonical_QSARr>
CC(C)(C)C1=CC(C)=CC(CC2=CC(C)=CC(=C2O)C(C)(C)C)=C1O

> <InChI_Code_QSARr>
InChI=1S/C23H32O2/c1-14-9-16(20(24)18(11-14)22(3,4)5)13-17-10-15(2)12-19(21(17)25)23(6,7)8/h9-12,24-25H,13H2,1-8H3

> <InChI Key_QSARr>
KGRVJHAUYBGFFP-UHFFFAOYSA-N

> <Salt_Solvent>


> <Salt_Solvent_ID>
0

> <Number of connected components>
1

$$$$
Molecule_227
  Mrv2316 01072400032D          

  6  5  0  0  0  0            999 V2000
    1.2375    2.1434    0.0000 C   0  0  0  0  0  0  0  0  0  0  0  0
    0.8250    1.4289    0.0000 C   0  0  0  0  0  0  0  0  0  0  0  0
    1.2375    0.7145    0.0000 C   0  0  0  0  0  0  0  0  0  0  0  0
    0.8250   -0.0000    0.0000 C   0  0  0  0  0  0  0  0  0  0  0  0
    1.2375   -0.7145    0.0000 C   0  0  0  0  0  0  0  0  0  0  0  0
    0.0000   -0.0000    0.0000 O   0  0  0  0  0  0  0  0  0  0  0  0
  1  2  1  0  0  0  0
  2  3  1  0  0  0  0
  3  4  1  0  0  0  0
  4  5  1  0  0  0  0
  4  6  1  0  0  0  0
M  END
> <RowID>
227

> <Original_SMILES>
CCCC(C)O

> <Canonical_QSARr>
CCCC(C)O

> <InChI_Code_QSARr>
InChI=1S/C5H12O/c1-3-4-5(2)6/h5-6H,3-4H2,1-2H3

> <InChI Key_QSARr>
JYVLIDXNZAXMDK-UHFFFAOYSA-N

> <Salt_Solvent>


> <Salt_Solvent_ID>
0

> <Number of connected components>
1

$$$$
Molecule_228
  Mrv2316 01072400032D          

 14 14  0  0  0  0            999 V2000
   -0.0000   -1.5321    0.0000 C   0  0  0  0  0  0  0  0  0  0  0  0
    0.7145   -1.1196    0.0000 N   0  0  0  0  0  0  0  0  0  0  0  0
    0.7145   -0.2946    0.0000 C   0  0  0  0  0  0  0  0  0  0  0  0
    1.4289    0.1179    0.0000 C   0  0  0  0  0  0  0  0  0  0  0  0
    1.4289    0.9429    0.0000 C   0  0  0  0  0  0  0  0  0  0  0  0
    0.7145    1.3554    0.0000 C   0  0  0  0  0  0  0  0  0  0  0  0
    0.7145    2.1804    0.0000 C   0  0  0  0  0  0  0  0  0  0  0  0
   -0.0000    2.5929    0.0000 O   0  0  0  0  0  0  0  0  0  0  0  0
    1.4289    2.5929    0.0000 O   0  0  0  0  0  0  0  0  0  0  0  0
   -0.0000    0.9429    0.0000 C   0  0  0  0  0  0  0  0  0  0  0  0
   -0.0000    0.1179    0.0000 C   0  0  0  0  0  0  0  0  0  0  0  0
   -0.7145   -0.2946    0.0000 N   0  3  0  0  0  0  0  0  0  0  0  0
   -0.7145   -1.1196    0.0000 O   0  5  0  0  0  0  0  0  0  0  0  0
   -1.4289    0.1179    0.0000 O   0  0  0  0  0  0  0  0  0  0  0  0
  1  2  1  0  0  0  0
  2  3  1  0  0  0  0
  4  3  1  0  0  0  0
  5  4  2  0  0  0  0
  6  5  1  0  0  0  0
  6  7  1  0  0  0  0
  7  8  1  0  0  0  0
  7  9  2  0  0  0  0
 10  6  2  0  0  0  0
 11 10  1  0  0  0  0
  3 11  2  0  0  0  0
 11 12  1  0  0  0  0
 12 13  1  0  0  0  0
 12 14  2  0  0  0  0
M  CHG  2  12   1  13  -1
M  END
> <RowID>
228

> <Original_SMILES>
CNC1C=CC(=CC=1[N+]([O-])=O)C(O)=O

> <Canonical_QSARr>
CNC1C=CC(=CC=1[N+]([O-])=O)C(O)=O

> <InChI_Code_QSARr>
InChI=1S/C8H8N2O4/c1-9-6-3-2-5(8(11)12)4-7(6)10(13)14/h2-4,9H,1H3,(H,11,12)

> <InChI Key_QSARr>
KSMLIIWEQBYUKA-UHFFFAOYSA-N

> <Salt_Solvent>


> <Salt_Solvent_ID>
0

> <Number of connected components>
1

$$$$
Molecule_229
  Mrv2316 01072400032D          

 11 11  0  0  0  0            999 V2000
    2.3383   -0.7500    0.0000 N   0  0  0  0  0  0  0  0  0  0  0  0
    1.6238   -0.3375    0.0000 C   0  0  0  0  0  0  0  0  0  0  0  0
    1.6238    0.4875    0.0000 C   0  0  0  0  0  0  0  0  0  0  0  0
    0.9093    0.9000    0.0000 C   0  0  0  0  0  0  0  0  0  0  0  0
    0.9093    1.7250    0.0000 C   0  0  0  0  0  0  0  0  0  0  0  0
    0.1949    2.1375    0.0000 N   0  0  0  0  0  0  0  0  0  0  0  0
    1.6238    2.1375    0.0000 O   0  0  0  0  0  0  0  0  0  0  0  0
    0.1949    0.4875    0.0000 C   0  0  0  0  0  0  0  0  0  0  0  0
    0.1949   -0.3375    0.0000 C   0  0  0  0  0  0  0  0  0  0  0  0
    0.9093   -0.7500    0.0000 C   0  0  0  0  0  0  0  0  0  0  0  0
    0.9093   -1.5750    0.0000 Cl  0  0  0  0  0  0  0  0  0  0  0  0
  1  2  1  0  0  0  0
  3  2  2  0  0  0  0
  4  3  1  0  0  0  0
  4  5  1  0  0  0  0
  5  6  1  0  0  0  0
  5  7  2  0  0  0  0
  8  4  2  0  0  0  0
  9  8  1  0  0  0  0
 10  9  2  0  0  0  0
  2 10  1  0  0  0  0
 10 11  1  0  0  0  0
M  END
> <RowID>
229

> <Original_SMILES>
NC1=CC(=CC=C1Cl)C(N)=O

> <Canonical_QSARr>
NC1=CC(=CC=C1Cl)C(N)=O

> <InChI_Code_QSARr>
InChI=1S/C7H7ClN2O/c8-5-2-1-4(7(10)11)3-6(5)9/h1-3H,9H2,(H2,10,11)

> <InChI Key_QSARr>
QHMDKGRWJVOUFU-UHFFFAOYSA-N

> <Salt_Solvent>


> <Salt_Solvent_ID>
0

> <Number of connected components>
1

$$$$
Molecule_230
  Mrv2316 01072400032D          

 19 19  0  0  0  0            999 V2000
    2.9331   -0.9553    0.0000 C   0  0  0  0  0  0  0  0  0  0  0  0
    2.2186   -0.5428    0.0000 C   0  0  0  0  0  0  0  0  0  0  0  0
    2.6311    0.1717    0.0000 C   0  0  0  0  0  0  0  0  0  0  0  0
    1.8061   -1.2572    0.0000 C   0  0  0  0  0  0  0  0  0  0  0  0
    1.5042   -0.1303    0.0000 C   0  0  0  0  0  0  0  0  0  0  0  0
    1.5042    0.6947    0.0000 C   0  0  0  0  0  0  0  0  0  0  0  0
    0.7897    1.1072    0.0000 C   0  0  0  0  0  0  0  0  0  0  0  0
    0.7897    1.9322    0.0000 C   0  0  0  0  0  0  0  0  0  0  0  0
    0.7897    2.7572    0.0000 C   0  0  0  0  0  0  0  0  0  0  0  0
    1.6147    1.9322    0.0000 C   0  0  0  0  0  0  0  0  0  0  0  0
   -0.0353    1.9322    0.0000 C   0  0  0  0  0  0  0  0  0  0  0  0
    0.0752    0.6947    0.0000 C   0  0  0  0  0  0  0  0  0  0  0  0
   -0.6393    1.1072    0.0000 O   0  0  0  0  0  0  0  0  0  0  0  0
    0.0752   -0.1303    0.0000 C   0  0  0  0  0  0  0  0  0  0  0  0
   -0.6393   -0.5428    0.0000 C   0  0  0  0  0  0  0  0  0  0  0  0
   -1.3537   -0.9553    0.0000 C   0  0  0  0  0  0  0  0  0  0  0  0
   -0.2268   -1.2572    0.0000 C   0  0  0  0  0  0  0  0  0  0  0  0
   -1.0518    0.1717    0.0000 C   0  0  0  0  0  0  0  0  0  0  0  0
    0.7897   -0.5428    0.0000 C   0  0  0  0  0  0  0  0  0  0  0  0
  1  2  1  0  0  0  0
  2  3  1  0  0  0  0
  2  4  1  0  0  0  0
  2  5  1  0  0  0  0
  6  5  2  0  0  0  0
  7  6  1  0  0  0  0
  7  8  1  0  0  0  0
  8  9  1  0  0  0  0
  8 10  1  0  0  0  0
  8 11  1  0  0  0  0
 12  7  2  0  0  0  0
 12 13  1  0  0  0  0
 14 12  1  0  0  0  0
 14 15  1  0  0  0  0
 15 16  1  0  0  0  0
 15 17  1  0  0  0  0
 15 18  1  0  0  0  0
 19 14  2  0  0  0  0
  5 19  1  0  0  0  0
M  END
> <RowID>
230

> <Original_SMILES>
CC(C)(C)C1=CC(=C(O)C(=C1)C(C)(C)C)C(C)(C)C

> <Canonical_QSARr>
CC(C)(C)C1=CC(=C(O)C(=C1)C(C)(C)C)C(C)(C)C

> <InChI_Code_QSARr>
InChI=1S/C18H30O/c1-16(2,3)12-10-13(17(4,5)6)15(19)14(11-12)18(7,8)9/h10-11,19H,1-9H3

> <InChI Key_QSARr>
PFEFOYRSMXVNEL-UHFFFAOYSA-N

> <Salt_Solvent>


> <Salt_Solvent_ID>
0

> <Number of connected components>
1

$$$$
Molecule_231
  Mrv2316 01072400032D          

 34 39  0  0  0  0            999 V2000
    0.7846   -0.2549    0.0000 N   0  0  0  0  0  0  0  0  0  0  0  0
    1.2695    0.4125    0.0000 C   0  0  0  0  0  0  0  0  0  0  0  0
    1.0146    1.1971    0.0000 O   0  0  0  0  0  0  0  0  0  0  0  0
    2.0542    0.1576    0.0000 C   0  0  0  0  0  0  0  0  0  0  0  0
    2.8388    0.4125    0.0000 C   0  0  0  0  0  0  0  0  0  0  0  0
    3.3237   -0.2549    0.0000 N   0  0  0  0  0  0  0  0  0  0  0  0
    2.8388   -0.9224    0.0000 C   0  0  0  0  0  0  0  0  0  0  0  0
    3.0937   -1.7070    0.0000 O   0  0  0  0  0  0  0  0  0  0  0  0
    2.0542   -0.6674    0.0000 C   0  0  0  0  0  0  0  0  0  0  0  0
    1.2695   -0.9224    0.0000 C   0  0  0  0  0  0  0  0  0  0  0  0
    1.0146   -1.7070    0.0000 C   0  0  0  0  0  0  0  0  0  0  0  0
    0.2076   -1.8785    0.0000 C   0  0  0  0  0  0  0  0  0  0  0  0
   -0.0473   -2.6632    0.0000 C   0  0  0  0  0  0  0  0  0  0  0  0
    0.5047   -3.2762    0.0000 C   0  0  0  0  0  0  0  0  0  0  0  0
    0.2498   -4.0609    0.0000 C   0  0  0  0  0  0  0  0  0  0  0  0
   -0.5572   -4.2324    0.0000 C   0  0  0  0  0  0  0  0  0  0  0  0
   -0.8121   -5.0170    0.0000 C   0  0  0  0  0  0  0  0  0  0  0  0
   -0.2601   -5.6301    0.0000 C   0  0  0  0  0  0  0  0  0  0  0  0
    0.5469   -5.4586    0.0000 C   0  0  0  0  0  0  0  0  0  0  0  0
    0.8018   -4.6740    0.0000 C   0  0  0  0  0  0  0  0  0  0  0  0
    1.3117   -3.1047    0.0000 C   0  0  0  0  0  0  0  0  0  0  0  0
    1.5666   -2.3201    0.0000 C   0  0  0  0  0  0  0  0  0  0  0  0
    3.0937    1.1971    0.0000 C   0  0  0  0  0  0  0  0  0  0  0  0
    3.9007    1.3686    0.0000 C   0  0  0  0  0  0  0  0  0  0  0  0
    4.1556    2.1533    0.0000 C   0  0  0  0  0  0  0  0  0  0  0  0
    3.6036    2.7664    0.0000 C   0  0  0  0  0  0  0  0  0  0  0  0
    3.8585    3.5510    0.0000 C   0  0  0  0  0  0  0  0  0  0  0  0
    4.6655    3.7225    0.0000 C   0  0  0  0  0  0  0  0  0  0  0  0
    4.9204    4.5071    0.0000 C   0  0  0  0  0  0  0  0  0  0  0  0
    4.3684    5.1202    0.0000 C   0  0  0  0  0  0  0  0  0  0  0  0
    3.5614    4.9487    0.0000 C   0  0  0  0  0  0  0  0  0  0  0  0
    3.3065    4.1641    0.0000 C   0  0  0  0  0  0  0  0  0  0  0  0
    2.7966    2.5948    0.0000 C   0  0  0  0  0  0  0  0  0  0  0  0
    2.5417    1.8102    0.0000 C   0  0  0  0  0  0  0  0  0  0  0  0
  2  1  1  0  0  0  0
  2  3  2  0  0  0  0
  4  2  1  0  0  0  0
  4  5  2  0  0  0  0
  5  6  1  0  0  0  0
  6  7  1  0  0  0  0
  7  8  2  0  0  0  0
  7  9  1  0  0  0  0
  9  4  1  0  0  0  0
 10  9  1  0  0  0  0
  1 10  2  0  0  0  0
 10 11  1  0  0  0  0
 12 11  1  0  0  0  0
 13 12  2  0  0  0  0
 14 13  1  0  0  0  0
 14 15  1  0  0  0  0
 16 15  1  0  0  0  0
 17 16  2  0  0  0  0
 18 17  1  0  0  0  0
 19 18  2  0  0  0  0
 20 19  1  0  0  0  0
 15 20  2  0  0  0  0
 21 14  2  0  0  0  0
 22 21  1  0  0  0  0
 11 22  2  0  0  0  0
  5 23  1  0  0  0  0
 24 23  1  0  0  0  0
 25 24  2  0  0  0  0
 26 25  1  0  0  0  0
 26 27  1  0  0  0  0
 28 27  1  0  0  0  0
 29 28  2  0  0  0  0
 30 29  1  0  0  0  0
 31 30  2  0  0  0  0
 32 31  1  0  0  0  0
 27 32  2  0  0  0  0
 33 26  2  0  0  0  0
 34 33  1  0  0  0  0
 23 34  2  0  0  0  0
M  END
> <RowID>
231

> <Original_SMILES>
O=C1NC(=C2C1=C(NC2=O)C1C=CC(=CC=1)C1C=CC=CC=1)C1C=CC(=CC=1)C1C=CC=CC=1

> <Canonical_QSARr>
O=C1N=C(C2C1=C(NC2=O)C1C=CC(=CC=1)C1C=CC=CC=1)C1C=CC(=CC=1)C1C=CC=CC=1

> <InChI_Code_QSARr>
InChI=1S/C30H20N2O2/c33-29-25-26(28(32-29)24-17-13-22(14-18-24)20-9-5-2-6-10-20)30(34)31-27(25)23-15-11-21(12-16-23)19-7-3-1-4-8-19/h1-18,25H,(H,32,33)

> <InChI Key_QSARr>
PILFPAPKIZPSIA-UHFFFAOYSA-N

> <Salt_Solvent>


> <Salt_Solvent_ID>
0

> <Number of connected components>
1

$$$$
Molecule_232
  Mrv2316 01072400032D          

 11 11  0  0  0  0            999 V2000
    1.3640    3.7125    0.0000 C   0  0  0  0  0  0  0  0  0  0  0  0
    0.6495    3.3000    0.0000 O   0  0  0  0  0  0  0  0  0  0  0  0
    0.6495    2.4750    0.0000 C   0  0  0  0  0  0  0  0  0  0  0  0
    1.3640    2.0625    0.0000 O   0  0  0  0  0  0  0  0  0  0  0  0
   -0.0650    2.0625    0.0000 C   0  0  0  0  0  0  0  0  0  0  0  0
   -0.0650    1.2375    0.0000 C   0  0  0  0  0  0  0  0  0  0  0  0
   -0.7794    0.8250    0.0000 C   0  0  0  0  0  0  0  0  0  0  0  0
   -0.7794   -0.0000    0.0000 C   0  0  0  0  0  0  0  0  0  0  0  0
   -0.0650   -0.4125    0.0000 C   0  0  0  0  0  0  0  0  0  0  0  0
    0.6495    0.0000    0.0000 C   0  0  0  0  0  0  0  0  0  0  0  0
    0.6495    0.8250    0.0000 C   0  0  0  0  0  0  0  0  0  0  0  0
  1  2  1  0  0  0  0
  2  3  1  0  0  0  0
  3  4  2  0  0  0  0
  3  5  1  0  0  0  0
  5  6  1  0  0  0  0
  7  6  1  0  0  0  0
  8  7  1  0  0  0  0
  9  8  1  0  0  0  0
 10  9  1  0  0  0  0
 11 10  1  0  0  0  0
  6 11  1  0  0  0  0
M  END
> <RowID>
232

> <Original_SMILES>
COC(=O)CC1CCCCC1

> <Canonical_QSARr>
COC(=O)CC1CCCCC1

> <InChI_Code_QSARr>
InChI=1S/C9H16O2/c1-11-9(10)7-8-5-3-2-4-6-8/h8H,2-7H2,1H3

> <InChI Key_QSARr>
IMXBRVLCKXGWSS-UHFFFAOYSA-N

> <Salt_Solvent>


> <Salt_Solvent_ID>
0

> <Number of connected components>
1

$$$$
Molecule_233
  Mrv2316 01072400032D          

 21 20  0  0  0  0            999 V2000
    9.1855    6.1283    0.0000 O   0  0  0  0  0  0  0  0  0  0  0  0
    9.9000    5.7158    0.0000 C   0  0  0  0  0  0  0  0  0  0  0  0
    9.9000    4.8908    0.0000 O   0  0  0  0  0  0  0  0  0  0  0  0
   10.6145    6.1283    0.0000 C   0  0  0  0  0  0  0  0  0  0  0  0
   11.3289    5.7158    0.0000 C   0  0  0  0  0  0  0  0  0  0  0  0
   12.0434    6.1283    0.0000 C   0  0  0  0  0  0  0  0  0  0  0  0
   12.7579    5.7158    0.0000 C   0  0  0  0  0  0  0  0  0  0  0  0
   13.4724    6.1283    0.0000 C   0  0  0  0  0  0  0  0  0  0  0  0
   14.1868    5.7158    0.0000 C   0  0  0  0  0  0  0  0  0  0  0  0
   14.9013    6.1283    0.0000 C   0  0  0  0  0  0  0  0  0  0  0  0
   15.6158    5.7158    0.0000 C   0  0  0  0  0  0  0  0  0  0  0  0
   16.3302    6.1283    0.0000 C   0  0  0  0  0  0  0  0  0  0  0  0
   17.0447    5.7158    0.0000 C   0  0  0  0  0  0  0  0  0  0  0  0
   17.7592    6.1283    0.0000 C   0  0  0  0  0  0  0  0  0  0  0  0
   18.4736    5.7158    0.0000 C   0  0  0  0  0  0  0  0  0  0  0  0
   19.1881    6.1283    0.0000 C   0  0  0  0  0  0  0  0  0  0  0  0
   19.9026    5.7158    0.0000 C   0  0  0  0  0  0  0  0  0  0  0  0
   20.6171    6.1283    0.0000 C   0  0  0  0  0  0  0  0  0  0  0  0
   21.3315    5.7158    0.0000 C   0  0  0  0  0  0  0  0  0  0  0  0
   22.0460    6.1283    0.0000 C   0  0  0  0  0  0  0  0  0  0  0  0
   17.7592    6.9533    0.0000 O   0  0  0  0  0  0  0  0  0  0  0  0
  1  2  1  0  0  0  0
  2  3  2  0  0  0  0
  2  4  1  0  0  0  0
  4  5  1  0  0  0  0
  5  6  1  0  0  0  0
  6  7  1  0  0  0  0
  7  8  1  0  0  0  0
  8  9  1  0  0  0  0
  9 10  1  0  0  0  0
 10 11  1  0  0  0  0
 11 12  1  0  0  0  0
 12 13  1  0  0  0  0
 13 14  1  0  0  0  0
 14 15  1  0  0  0  0
 15 16  1  0  0  0  0
 16 17  1  0  0  0  0
 17 18  1  0  0  0  0
 18 19  1  0  0  0  0
 19 20  1  0  0  0  0
 14 21  1  0  0  0  0
M  END
> <RowID>
233

> <Original_SMILES>
[Ca+2].CCCCCCC(O)CCCCCCCCCCC([O-])=O.CCCCCCC(O)CCCCCCCCCCC([O-])=O

> <Canonical_QSARr>
CCCCCCC(O)CCCCCCCCCCC(O)=O

> <InChI_Code_QSARr>
InChI=1S/C18H36O3/c1-2-3-4-11-14-17(19)15-12-9-7-5-6-8-10-13-16-18(20)21/h17,19H,2-16H2,1H3,(H,20,21)

> <InChI Key_QSARr>
ULQISTXYYBZJSJ-UHFFFAOYSA-N

> <Salt_Solvent>
[Ca+2]

> <Salt_Solvent_ID>
200

> <Number of connected components>
3

$$$$
Molecule_234
  Mrv2316 01072400032D          

 16 17  0  0  0  0            999 V2000
    1.4289   -1.9078    0.0000 C   0  0  0  0  0  0  0  0  0  0  0  0
    2.1434   -1.4953    0.0000 C   0  0  0  0  0  0  0  0  0  0  0  0
    2.1434   -0.6703    0.0000 C   0  0  0  0  0  0  0  0  0  0  0  0
    2.8579   -0.2578    0.0000 C   0  0  0  0  0  0  0  0  0  0  0  0
    2.8579    0.5672    0.0000 C   0  0  0  0  0  0  0  0  0  0  0  0
    2.1434    0.9797    0.0000 C   0  0  0  0  0  0  0  0  0  0  0  0
    2.1434    1.8047    0.0000 O   0  0  0  0  0  0  0  0  0  0  0  0
    1.4289    0.5672    0.0000 C   0  0  0  0  0  0  0  0  0  0  0  0
    1.4289   -0.2578    0.0000 C   0  0  0  0  0  0  0  0  0  0  0  0
    0.7145   -0.6703    0.0000 O   0  0  0  0  0  0  0  0  0  0  0  0
    2.8579   -1.9078    0.0000 C   0  0  0  0  0  0  0  0  0  0  0  0
    2.8579   -2.7328    0.0000 C   0  0  0  0  0  0  0  0  0  0  0  0
    3.5724   -3.1453    0.0000 C   0  0  0  0  0  0  0  0  0  0  0  0
    4.2868   -2.7328    0.0000 C   0  0  0  0  0  0  0  0  0  0  0  0
    4.2868   -1.9078    0.0000 C   0  0  0  0  0  0  0  0  0  0  0  0
    3.5724   -1.4953    0.0000 C   0  0  0  0  0  0  0  0  0  0  0  0
  1  2  1  0  0  0  0
  2  3  1  0  0  0  0
  4  3  1  0  0  0  0
  5  4  2  0  0  0  0
  6  5  1  0  0  0  0
  6  7  1  0  0  0  0
  8  6  2  0  0  0  0
  9  8  1  0  0  0  0
  3  9  2  0  0  0  0
  9 10  1  0  0  0  0
  2 11  1  0  0  0  0
 12 11  1  0  0  0  0
 13 12  2  0  0  0  0
 14 13  1  0  0  0  0
 15 14  2  0  0  0  0
 16 15  1  0  0  0  0
 11 16  2  0  0  0  0
M  END
> <RowID>
234

> <Original_SMILES>
CC(C1C=CC(O)=CC=1O)C1C=CC=CC=1

> <Canonical_QSARr>
CC(C1C=CC(O)=CC=1O)C1C=CC=CC=1

> <InChI_Code_QSARr>
InChI=1S/C14H14O2/c1-10(11-5-3-2-4-6-11)13-8-7-12(15)9-14(13)16/h2-10,15-16H,1H3

> <InChI Key_QSARr>
PQSXNIMHIHYFEE-UHFFFAOYSA-N

> <Salt_Solvent>


> <Salt_Solvent_ID>
0

> <Number of connected components>
1

$$$$
Molecule_235
  Mrv2316 01072400032D          

 33 36  0  0  0  0            999 V2000
    0.3248    3.1125    0.0000 C   0  0  0  0  0  0  0  0  0  0  0  0
    0.3248    2.2875    0.0000 O   0  0  0  0  0  0  0  0  0  0  0  0
   -0.3897    1.8750    0.0000 C   0  0  0  0  0  0  0  0  0  0  0  0
   -1.1042    2.2875    0.0000 C   0  0  0  0  0  0  0  0  0  0  0  0
   -1.8187    1.8750    0.0000 C   0  0  0  0  0  0  0  0  0  0  0  0
   -1.8187    1.0500    0.0000 C   0  0  0  0  0  0  0  0  0  0  0  0
   -1.1042    0.6375    0.0000 C   0  0  0  0  0  0  0  0  0  0  0  0
   -0.3897    1.0500    0.0000 C   0  0  0  0  0  0  0  0  0  0  0  0
    0.3248    0.6375    0.0000 N   0  0  0  0  0  0  0  0  0  0  0  0
    0.3248   -0.1875    0.0000 C   0  0  0  0  0  0  0  0  0  0  0  0
   -0.3897   -0.6000    0.0000 O   0  0  0  0  0  0  0  0  0  0  0  0
    1.0392   -0.6000    0.0000 C   0  0  0  0  0  0  0  0  0  0  0  0
    1.7537   -0.1875    0.0000 C   0  0  0  0  0  0  0  0  0  0  0  0
    2.4682   -0.6000    0.0000 C   0  0  0  0  0  0  0  0  0  0  0  0
    3.1826   -0.1875    0.0000 C   0  0  0  0  0  0  0  0  0  0  0  0
    3.8971   -0.6000    0.0000 C   0  0  0  0  0  0  0  0  0  0  0  0
    3.8971   -1.4250    0.0000 C   0  0  0  0  0  0  0  0  0  0  0  0
    3.1826   -1.8375    0.0000 C   0  0  0  0  0  0  0  0  0  0  0  0
    2.4682   -1.4250    0.0000 C   0  0  0  0  0  0  0  0  0  0  0  0
    1.7537   -1.8375    0.0000 C   0  0  0  0  0  0  0  0  0  0  0  0
    1.7537   -2.6625    0.0000 N   0  0  0  0  0  0  0  0  0  0  0  0
    1.0392   -3.0750    0.0000 N   0  0  0  0  0  0  0  0  0  0  0  0
    1.0392   -3.9000    0.0000 C   0  0  0  0  0  0  0  0  0  0  0  0
    0.3248   -4.3125    0.0000 C   0  0  0  0  0  0  0  0  0  0  0  0
    0.3248   -5.1375    0.0000 C   0  0  0  0  0  0  0  0  0  0  0  0
    1.0392   -5.5500    0.0000 C   0  0  0  0  0  0  0  0  0  0  0  0
    1.0392   -6.3750    0.0000 C   0  0  0  0  0  0  0  0  0  0  0  0
    1.7537   -6.7875    0.0000 N   0  0  0  0  0  0  0  0  0  0  0  0
    0.3248   -6.7875    0.0000 O   0  0  0  0  0  0  0  0  0  0  0  0
    1.7537   -5.1375    0.0000 C   0  0  0  0  0  0  0  0  0  0  0  0
    1.7537   -4.3125    0.0000 C   0  0  0  0  0  0  0  0  0  0  0  0
    1.0392   -1.4250    0.0000 C   0  0  0  0  0  0  0  0  0  0  0  0
    0.3248   -1.8375    0.0000 O   0  0  0  0  0  0  0  0  0  0  0  0
  1  2  1  0  0  0  0
  2  3  1  0  0  0  0
  4  3  1  0  0  0  0
  5  4  2  0  0  0  0
  6  5  1  0  0  0  0
  7  6  2  0  0  0  0
  8  7  1  0  0  0  0
  3  8  2  0  0  0  0
  8  9  1  0  0  0  0
  9 10  1  0  0  0  0
 10 11  2  0  0  0  0
 10 12  1  0  0  0  0
 13 12  1  0  0  0  0
 14 13  2  0  0  0  0
 14 15  1  0  0  0  0
 15 16  2  0  0  0  0
 16 17  1  0  0  0  0
 17 18  2  0  0  0  0
 18 19  1  0  0  0  0
 19 14  1  0  0  0  0
 20 19  2  0  0  0  0
 21 20  1  4  0  0  0
 21 22  2  0  0  0  0
 22 23  1  0  0  0  0
 24 23  1  0  0  0  0
 25 24  2  0  0  0  0
 26 25  1  0  0  0  0
 26 27  1  0  0  0  0
 27 28  1  0  0  0  0
 27 29  2  0  0  0  0
 30 26  2  0  0  0  0
 31 30  1  0  0  0  0
 23 31  2  0  0  0  0
 32 20  1  0  0  0  0
 12 32  2  0  0  0  0
 32 33  1  0  0  0  0
M  END
> <RowID>
235

> <Original_SMILES>
COC1C=CC=CC=1NC(=O)C1C=C2C=CC=CC2=C(N=NC2C=CC(=CC=2)C(N)=O)C=1O

> <Canonical_QSARr>
COC1C=CC=CC=1NC(=O)C1C=C2C=CC=CC2=C(N=NC2C=CC(=CC=2)C(N)=O)C=1O

> <InChI_Code_QSARr>
InChI=1S/C25H20N4O4/c1-33-21-9-5-4-8-20(21)27-25(32)19-14-16-6-2-3-7-18(16)22(23(19)30)29-28-17-12-10-15(11-13-17)24(26)31/h2-14,30H,1H3,(H2,26,31)(H,27,32)

> <InChI Key_QSARr>
HULNYTPFPARJMG-UHFFFAOYSA-N

> <Salt_Solvent>


> <Salt_Solvent_ID>
0

> <Number of connected components>
1

$$$$
Molecule_236
  Mrv2316 01072400032D          

 58 57  0  0  0  0            999 V2000
   30.7339   18.5717    0.0000 C   0  0  0  0  0  0  0  0  0  0  0  0
   31.4484   18.9842    0.0000 C   0  0  0  0  0  0  0  0  0  0  0  0
   32.1629   18.5717    0.0000 C   0  0  0  0  0  0  0  0  0  0  0  0
   32.8774   18.9842    0.0000 C   0  0  0  0  0  0  0  0  0  0  0  0
   33.5918   18.5717    0.0000 C   0  0  0  0  0  0  0  0  0  0  0  0
   34.3063   18.9842    0.0000 C   0  0  0  0  0  0  0  0  0  0  0  0
   35.0208   18.5717    0.0000 C   0  0  0  0  0  0  0  0  0  0  0  0
   35.7352   18.9842    0.0000 C   0  0  0  0  0  0  0  0  0  0  0  0
   36.4497   18.5717    0.0000 C   0  0  0  0  0  0  0  0  0  0  0  0
   37.1642   18.9842    0.0000 C   0  0  0  0  0  0  0  0  0  0  0  0
   37.8787   18.5717    0.0000 C   0  0  0  0  0  0  0  0  0  0  0  0
   38.5931   18.9842    0.0000 C   0  0  0  0  0  0  0  0  0  0  0  0
   39.3076   18.5717    0.0000 C   0  0  0  0  0  0  0  0  0  0  0  0
   40.0221   18.9842    0.0000 C   0  0  0  0  0  0  0  0  0  0  0  0
   40.7365   18.5717    0.0000 C   0  0  0  0  0  0  0  0  0  0  0  0
   41.4510   18.9842    0.0000 C   0  0  0  0  0  0  0  0  0  0  0  0
   42.1655   18.5717    0.0000 C   0  0  0  0  0  0  0  0  0  0  0  0
   42.8799   18.9842    0.0000 C   0  0  0  0  0  0  0  0  0  0  0  0
   43.5944   18.5717    0.0000 C   0  0  0  0  0  0  0  0  0  0  0  0
   44.3089   18.9842    0.0000 C   0  0  0  0  0  0  0  0  0  0  0  0
   45.0234   18.5717    0.0000 C   0  0  0  0  0  0  0  0  0  0  0  0
   45.7378   18.9842    0.0000 C   0  0  0  0  0  0  0  0  0  0  0  0
   46.4523   18.5717    0.0000 O   0  0  0  0  0  0  0  0  0  0  0  0
   47.1668   18.9842    0.0000 C   0  0  0  0  0  0  0  0  0  0  0  0
   47.1668   19.8092    0.0000 O   0  0  0  0  0  0  0  0  0  0  0  0
   47.8812   18.5717    0.0000 C   0  0  0  0  0  0  0  0  0  0  0  0
   48.5957   18.9842    0.0000 C   0  0  0  0  0  0  0  0  0  0  0  0
   49.3102   18.5717    0.0000 C   0  0  0  0  0  0  0  0  0  0  0  0
   50.0247   18.9842    0.0000 C   0  0  0  0  0  0  0  0  0  0  0  0
   50.7391   18.5717    0.0000 C   0  0  0  0  0  0  0  0  0  0  0  0
   51.4536   18.9842    0.0000 C   0  0  0  0  0  0  0  0  0  0  0  0
   52.1681   18.5717    0.0000 C   0  0  0  0  0  0  0  0  0  0  0  0
   52.8825   18.9842    0.0000 C   0  0  0  0  0  0  0  0  0  0  0  0
   53.5970   18.5717    0.0000 C   0  0  0  0  0  0  0  0  0  0  0  0
   53.5970   17.7467    0.0000 O   0  0  0  0  0  0  0  0  0  0  0  0
   54.3115   18.9842    0.0000 O   0  0  0  0  0  0  0  0  0  0  0  0
   55.0260   18.5717    0.0000 C   0  0  0  0  0  0  0  0  0  0  0  0
   55.7404   18.9842    0.0000 C   0  0  0  0  0  0  0  0  0  0  0  0
   56.4549   18.5717    0.0000 C   0  0  0  0  0  0  0  0  0  0  0  0
   57.1694   18.9842    0.0000 C   0  0  0  0  0  0  0  0  0  0  0  0
   57.8838   18.5717    0.0000 C   0  0  0  0  0  0  0  0  0  0  0  0
   58.5983   18.9842    0.0000 C   0  0  0  0  0  0  0  0  0  0  0  0
   59.3128   18.5717    0.0000 C   0  0  0  0  0  0  0  0  0  0  0  0
   60.0273   18.9842    0.0000 C   0  0  0  0  0  0  0  0  0  0  0  0
   60.7417   18.5717    0.0000 C   0  0  0  0  0  0  0  0  0  0  0  0
   61.4562   18.9842    0.0000 C   0  0  0  0  0  0  0  0  0  0  0  0
   62.1707   18.5717    0.0000 C   0  0  0  0  0  0  0  0  0  0  0  0
   62.8851   18.9842    0.0000 C   0  0  0  0  0  0  0  0  0  0  0  0
   63.5996   18.5717    0.0000 C   0  0  0  0  0  0  0  0  0  0  0  0
   64.3141   18.9842    0.0000 C   0  0  0  0  0  0  0  0  0  0  0  0
   65.0285   18.5717    0.0000 C   0  0  0  0  0  0  0  0  0  0  0  0
   65.7430   18.9842    0.0000 C   0  0  0  0  0  0  0  0  0  0  0  0
   66.4575   18.5717    0.0000 C   0  0  0  0  0  0  0  0  0  0  0  0
   67.1720   18.9842    0.0000 C   0  0  0  0  0  0  0  0  0  0  0  0
   67.8864   18.5717    0.0000 C   0  0  0  0  0  0  0  0  0  0  0  0
   68.6009   18.9842    0.0000 C   0  0  0  0  0  0  0  0  0  0  0  0
   69.3154   18.5717    0.0000 C   0  0  0  0  0  0  0  0  0  0  0  0
   70.0298   18.9842    0.0000 C   0  0  0  0  0  0  0  0  0  0  0  0
  1  2  1  0  0  0  0
  2  3  1  0  0  0  0
  3  4  1  0  0  0  0
  4  5  1  0  0  0  0
  5  6  1  0  0  0  0
  6  7  1  0  0  0  0
  7  8  1  0  0  0  0
  8  9  1  0  0  0  0
  9 10  1  0  0  0  0
 10 11  1  0  0  0  0
 11 12  1  0  0  0  0
 12 13  1  0  0  0  0
 13 14  1  0  0  0  0
 14 15  1  0  0  0  0
 15 16  1  0  0  0  0
 16 17  1  0  0  0  0
 17 18  1  0  0  0  0
 18 19  1  0  0  0  0
 19 20  1  0  0  0  0
 20 21  1  0  0  0  0
 21 22  1  0  0  0  0
 22 23  1  0  0  0  0
 23 24  1  0  0  0  0
 24 25  2  0  0  0  0
 24 26  1  0  0  0  0
 26 27  1  0  0  0  0
 27 28  1  0  0  0  0
 28 29  1  0  0  0  0
 29 30  1  0  0  0  0
 30 31  1  0  0  0  0
 31 32  1  0  0  0  0
 32 33  1  0  0  0  0
 33 34  1  0  0  0  0
 34 35  2  0  0  0  0
 34 36  1  0  0  0  0
 36 37  1  0  0  0  0
 37 38  1  0  0  0  0
 38 39  1  0  0  0  0
 39 40  1  0  0  0  0
 40 41  1  0  0  0  0
 41 42  1  0  0  0  0
 42 43  1  0  0  0  0
 43 44  1  0  0  0  0
 44 45  1  0  0  0  0
 45 46  1  0  0  0  0
 46 47  1  0  0  0  0
 47 48  1  0  0  0  0
 48 49  1  0  0  0  0
 49 50  1  0  0  0  0
 50 51  1  0  0  0  0
 51 52  1  0  0  0  0
 52 53  1  0  0  0  0
 53 54  1  0  0  0  0
 54 55  1  0  0  0  0
 55 56  1  0  0  0  0
 56 57  1  0  0  0  0
 57 58  1  0  0  0  0
M  END
> <RowID>
236

> <Original_SMILES>
CCCCCCCCCCCCCCCCCCCCCCOC(=O)CCCCCCCCC(=O)OCCCCCCCCCCCCCCCCCCCCCC

> <Canonical_QSARr>
CCCCCCCCCCCCCCCCCCCCCCOC(=O)CCCCCCCCC(=O)OCCCCCCCCCCCCCCCCCCCCCC

> <InChI_Code_QSARr>
InChI=1S/C54H106O4/c1-3-5-7-9-11-13-15-17-19-21-23-25-27-29-31-33-35-39-43-47-51-57-53(55)49-45-41-37-38-42-46-50-54(56)58-52-48-44-40-36-34-32-30-28-26-24-22-20-18-16-14-12-10-8-6-4-2/h3-52H2,1-2H3

> <InChI Key_QSARr>
PRNNATBNXILRSR-UHFFFAOYSA-N

> <Salt_Solvent>


> <Salt_Solvent_ID>
0

> <Number of connected components>
1

$$$$
Molecule_238
  Mrv2316 01072400032D          

 18 19  0  0  0  0            999 V2000
    0.7145   -7.9750    0.0000 C   0  0  0  0  0  0  0  0  0  0  0  0
    1.4289   -7.5625    0.0000 O   0  0  0  0  0  0  0  0  0  0  0  0
    1.4289   -6.7375    0.0000 C   0  0  0  0  0  0  0  0  0  0  0  0
    2.1434   -6.3250    0.0000 C   0  0  0  0  0  0  0  0  0  0  0  0
    2.1434   -5.5000    0.0000 C   0  0  0  0  0  0  0  0  0  0  0  0
    1.4289   -5.0875    0.0000 C   0  0  0  0  0  0  0  0  0  0  0  0
    1.4289   -4.2625    0.0000 C   0  0  0  0  0  0  0  0  0  0  0  0
    0.7145   -3.8500    0.0000 O   0  0  0  0  0  0  0  0  0  0  0  0
    2.1434   -3.8500    0.0000 N   0  0  0  0  0  0  0  0  0  0  0  0
    2.1434   -3.0250    0.0000 C   0  0  0  0  0  0  0  0  0  0  0  0
    2.8579   -2.6125    0.0000 C   0  0  0  0  0  0  0  0  0  0  0  0
    2.8579   -1.7875    0.0000 C   0  0  0  0  0  0  0  0  0  0  0  0
    2.1434   -1.3750    0.0000 C   0  0  0  0  0  0  0  0  0  0  0  0
    1.4289   -1.7875    0.0000 C   0  0  0  0  0  0  0  0  0  0  0  0
    1.4289   -2.6125    0.0000 C   0  0  0  0  0  0  0  0  0  0  0  0
    0.7145   -5.5000    0.0000 C   0  0  0  0  0  0  0  0  0  0  0  0
    0.7145   -6.3250    0.0000 C   0  0  0  0  0  0  0  0  0  0  0  0
   -0.0000   -6.7375    0.0000 N   0  0  0  0  0  0  0  0  0  0  0  0
  1  2  1  0  0  0  0
  2  3  1  0  0  0  0
  4  3  1  0  0  0  0
  5  4  2  0  0  0  0
  6  5  1  0  0  0  0
  6  7  1  0  0  0  0
  7  8  2  0  0  0  0
  7  9  1  0  0  0  0
  9 10  1  0  0  0  0
 11 10  1  0  0  0  0
 12 11  2  0  0  0  0
 13 12  1  0  0  0  0
 14 13  2  0  0  0  0
 15 14  1  0  0  0  0
 10 15  2  0  0  0  0
 16  6  2  0  0  0  0
 17 16  1  0  0  0  0
  3 17  2  0  0  0  0
 17 18  1  0  0  0  0
M  END
> <RowID>
238

> <Original_SMILES>
COC1C=CC(=CC=1N)C(=O)NC1C=CC=CC=1

> <Canonical_QSARr>
COC1C=CC(=CC=1N)C(=O)NC1C=CC=CC=1

> <InChI_Code_QSARr>
InChI=1S/C14H14N2O2/c1-18-13-8-7-10(9-12(13)15)14(17)16-11-5-3-2-4-6-11/h2-9H,15H2,1H3,(H,16,17)

> <InChI Key_QSARr>
LHMQDVIHBXWNII-UHFFFAOYSA-N

> <Salt_Solvent>


> <Salt_Solvent_ID>
0

> <Number of connected components>
1

$$$$
Molecule_240
  Mrv2316 01072400032D          

 32 34  0  0  0  0            999 V2000
   -2.0956   -8.6392    0.0000 O   0  0  0  0  0  0  0  0  0  0  0  0
   -1.3812   -8.2267    0.0000 C   0  0  0  0  0  0  0  0  0  0  0  0
   -0.6667   -7.8142    0.0000 N   0  0  0  0  0  0  0  0  0  0  0  0
   -0.6667   -6.9892    0.0000 C   0  0  0  0  0  0  0  0  0  0  0  0
    0.0478   -6.5767    0.0000 C   0  0  0  0  0  0  0  0  0  0  0  0
    0.0478   -5.7517    0.0000 C   0  0  0  0  0  0  0  0  0  0  0  0
   -0.6667   -5.3392    0.0000 C   0  0  0  0  0  0  0  0  0  0  0  0
   -0.6667   -4.5142    0.0000 O   0  0  0  0  0  0  0  0  0  0  0  0
    0.0478   -4.1017    0.0000 P   0  0  0  0  0  0  0  0  0  0  0  0
    0.4603   -4.8162    0.0000 S   0  0  0  0  0  0  0  0  0  0  0  0
    0.7623   -3.6892    0.0000 O   0  0  0  0  0  0  0  0  0  0  0  0
    1.4767   -4.1017    0.0000 C   0  0  0  0  0  0  0  0  0  0  0  0
    1.4767   -4.9267    0.0000 C   0  0  0  0  0  0  0  0  0  0  0  0
    2.1912   -5.3392    0.0000 C   0  0  0  0  0  0  0  0  0  0  0  0
    2.9057   -4.9267    0.0000 C   0  0  0  0  0  0  0  0  0  0  0  0
    3.6201   -5.3392    0.0000 N   0  0  0  0  0  0  0  0  0  0  0  0
    4.3346   -4.9267    0.0000 C   0  0  0  0  0  0  0  0  0  0  0  0
    5.0491   -4.5142    0.0000 O   0  0  0  0  0  0  0  0  0  0  0  0
    2.9057   -4.1017    0.0000 C   0  0  0  0  0  0  0  0  0  0  0  0
    2.1912   -3.6892    0.0000 C   0  0  0  0  0  0  0  0  0  0  0  0
   -0.3647   -3.3872    0.0000 O   0  0  0  0  0  0  0  0  0  0  0  0
    0.0478   -2.6728    0.0000 C   0  0  0  0  0  0  0  0  0  0  0  0
    0.8728   -2.6728    0.0000 C   0  0  0  0  0  0  0  0  0  0  0  0
    1.2853   -1.9583    0.0000 C   0  0  0  0  0  0  0  0  0  0  0  0
    0.8728   -1.2438    0.0000 C   0  0  0  0  0  0  0  0  0  0  0  0
    1.2853   -0.5293    0.0000 N   0  0  0  0  0  0  0  0  0  0  0  0
    2.1103   -0.5293    0.0000 C   0  0  0  0  0  0  0  0  0  0  0  0
    2.9353   -0.5293    0.0000 O   0  0  0  0  0  0  0  0  0  0  0  0
    0.0478   -1.2438    0.0000 C   0  0  0  0  0  0  0  0  0  0  0  0
   -0.3647   -1.9583    0.0000 C   0  0  0  0  0  0  0  0  0  0  0  0
   -1.3812   -5.7517    0.0000 C   0  0  0  0  0  0  0  0  0  0  0  0
   -1.3812   -6.5767    0.0000 C   0  0  0  0  0  0  0  0  0  0  0  0
  1  2  2  0  0  0  0
  2  3  2  0  0  0  0
  3  4  1  0  0  0  0
  5  4  1  0  0  0  0
  6  5  2  0  0  0  0
  7  6  1  0  0  0  0
  7  8  1  0  0  0  0
  8  9  1  0  0  0  0
  9 10  2  0  0  0  0
  9 11  1  0  0  0  0
 11 12  1  0  0  0  0
 13 12  1  0  0  0  0
 14 13  2  0  0  0  0
 15 14  1  0  0  0  0
 15 16  1  0  0  0  0
 16 17  2  0  0  0  0
 17 18  2  0  0  0  0
 19 15  2  0  0  0  0
 20 19  1  0  0  0  0
 12 20  2  0  0  0  0
  9 21  1  0  0  0  0
 21 22  1  0  0  0  0
 23 22  1  0  0  0  0
 24 23  2  0  0  0  0
 25 24  1  0  0  0  0
 25 26  1  0  0  0  0
 26 27  2  0  0  0  0
 27 28  2  0  0  0  0
 29 25  2  0  0  0  0
 30 29  1  0  0  0  0
 22 30  2  0  0  0  0
 31  7  2  0  0  0  0
 32 31  1  0  0  0  0
  4 32  2  0  0  0  0
M  END
> <RowID>
240

> <Original_SMILES>
O=C=NC1C=CC(=CC=1)OP(=S)(OC1C=CC(=CC=1)N=C=O)OC1C=CC(=CC=1)N=C=O

> <Canonical_QSARr>
O=C=NC1C=CC(=CC=1)OP(=S)(OC1C=CC(=CC=1)N=C=O)OC1C=CC(=CC=1)N=C=O

> <InChI_Code_QSARr>
InChI=1S/C21H12N3O6PS/c25-13-22-16-1-7-19(8-2-16)28-31(32,29-20-9-3-17(4-10-20)23-14-26)30-21-11-5-18(6-12-21)24-15-27/h1-12H

> <InChI Key_QSARr>
KGLSETWPYVUTQX-UHFFFAOYSA-N

> <Salt_Solvent>


> <Salt_Solvent_ID>
0

> <Number of connected components>
1

$$$$
Molecule_242
  Mrv2316 01072400032D          

 19 20  0  0  0  0            999 V2000
    4.3620   -6.7303    0.0000 C   0  0  0  0  0  0  0  0  0  0  0  0
    3.6476   -6.3178    0.0000 C   0  0  0  0  0  0  0  0  0  0  0  0
    3.6476   -5.4928    0.0000 C   0  0  0  0  0  0  0  0  0  0  0  0
    2.9331   -5.0803    0.0000 C   0  0  0  0  0  0  0  0  0  0  0  0
    2.9331   -4.2553    0.0000 N   0  0  0  0  0  0  0  0  0  0  0  0
    3.6476   -3.8428    0.0000 N   0  0  0  0  0  0  0  0  0  0  0  0
    3.6476   -3.0178    0.0000 C   0  0  0  0  0  0  0  0  0  0  0  0
    4.3620   -2.6053    0.0000 C   0  0  0  0  0  0  0  0  0  0  0  0
    4.3620   -1.7803    0.0000 C   0  0  0  0  0  0  0  0  0  0  0  0
    3.6476   -1.3678    0.0000 C   0  0  0  0  0  0  0  0  0  0  0  0
    2.9331   -1.7803    0.0000 C   0  0  0  0  0  0  0  0  0  0  0  0
    2.9331   -2.6053    0.0000 C   0  0  0  0  0  0  0  0  0  0  0  0
    2.2186   -3.0178    0.0000 N   0  3  0  0  0  0  0  0  0  0  0  0
    2.2186   -3.8428    0.0000 O   0  5  0  0  0  0  0  0  0  0  0  0
    1.5042   -2.6053    0.0000 O   0  0  0  0  0  0  0  0  0  0  0  0
    2.2186   -5.4928    0.0000 C   0  0  0  0  0  0  0  0  0  0  0  0
    1.5042   -5.0803    0.0000 O   0  0  0  0  0  0  0  0  0  0  0  0
    2.2186   -6.3178    0.0000 C   0  0  0  0  0  0  0  0  0  0  0  0
    2.9331   -6.7303    0.0000 C   0  0  0  0  0  0  0  0  0  0  0  0
  1  2  1  0  0  0  0
  3  2  2  0  0  0  0
  4  3  1  0  0  0  0
  5  4  1  4  0  0  0
  5  6  2  0  0  0  0
  6  7  1  0  0  0  0
  8  7  1  0  0  0  0
  9  8  2  0  0  0  0
 10  9  1  0  0  0  0
 11 10  2  0  0  0  0
 12 11  1  0  0  0  0
  7 12  2  0  0  0  0
 12 13  1  0  0  0  0
 13 14  1  0  0  0  0
 13 15  2  0  0  0  0
 16  4  2  0  0  0  0
 16 17  1  0  0  0  0
 18 16  1  0  0  0  0
 19 18  2  0  0  0  0
  2 19  1  0  0  0  0
M  CHG  2  13   1  14  -1
M  END
> <RowID>
242

> <Original_SMILES>
CC1=CC(N=NC2C=CC=CC=2[N+]([O-])=O)=C(O)C=C1

> <Canonical_QSARr>
CC1=CC(N=NC2C=CC=CC=2[N+]([O-])=O)=C(O)C=C1

> <InChI_Code_QSARr>
InChI=1S/C13H11N3O3/c1-9-6-7-13(17)11(8-9)15-14-10-4-2-3-5-12(10)16(18)19/h2-8,17H,1H3

> <InChI Key_QSARr>
DRPPFIRCBMBJCM-UHFFFAOYSA-N

> <Salt_Solvent>


> <Salt_Solvent_ID>
0

> <Number of connected components>
1

$$$$
Molecule_243
  Mrv2316 01072400032D          

 10 12  0  0  0  0            999 V2000
    2.6216    1.2917    0.0000 C   0  0  0  0  0  0  0  0  0  0  0  0
    3.1065    0.6243    0.0000 C   0  0  0  0  0  0  0  0  0  0  0  0
    2.6216   -0.0431    0.0000 C   0  0  0  0  0  0  0  0  0  0  0  0
    1.8370    0.2118    0.0000 C   0  0  0  0  0  0  0  0  0  0  0  0
    1.8370    1.0368    0.0000 C   0  0  0  0  0  0  0  0  0  0  0  0
    1.1225    1.4493    0.0000 C   0  0  0  0  0  0  0  0  0  0  0  0
    0.9163    0.6243    0.0000 C   0  0  0  0  0  0  0  0  0  0  0  0
    1.1225   -0.2007    0.0000 C   0  0  0  0  0  0  0  0  0  0  0  0
    0.4081    0.2118    0.0000 C   0  0  0  0  0  0  0  0  0  0  0  0
    0.4081    1.0368    0.0000 C   0  0  0  0  0  0  0  0  0  0  0  0
  2  1  1  0  0  0  0
  3  2  2  0  0  0  0
  4  3  1  0  0  0  0
  4  5  1  0  0  0  0
  1  5  1  0  0  0  0
  5  6  1  0  0  0  0
  7  6  1  0  0  0  0
  8  7  1  0  0  0  0
  8  4  1  0  0  0  0
  9  8  1  0  0  0  0
 10  9  1  0  0  0  0
  6 10  1  0  0  0  0
M  END
> <RowID>
243

> <Original_SMILES>
C1C=CC2C1C1CC2CC1

> <Canonical_QSARr>
C1C=CC2C1C1CC2CC1

> <InChI_Code_QSARr>
InChI=1S/C10H14/c1-2-9-7-4-5-8(6-7)10(9)3-1/h1-2,7-10H,3-6H2

> <InChI Key_QSARr>
HANKSFAYJLDDKP-UHFFFAOYSA-N

> <Salt_Solvent>


> <Salt_Solvent_ID>
0

> <Number of connected components>
1

$$$$
Molecule_246
  Mrv2316 01072400032D          

 21 22  0  0  0  0            999 V2000
   -1.4289   -1.6500    0.0000 O   0  0  0  0  0  0  0  0  0  0  0  0
   -0.7145   -2.0625    0.0000 C   0  0  0  0  0  0  0  0  0  0  0  0
    0.0000   -1.6500    0.0000 O   0  0  0  0  0  0  0  0  0  0  0  0
   -0.7145   -2.8875    0.0000 C   0  0  0  0  0  0  0  0  0  0  0  0
   -1.4289   -3.3000    0.0000 C   0  0  0  0  0  0  0  0  0  0  0  0
   -1.4289   -4.1250    0.0000 C   0  0  0  0  0  0  0  0  0  0  0  0
   -0.7145   -4.5375    0.0000 C   0  0  0  0  0  0  0  0  0  0  0  0
    0.0000   -4.1250    0.0000 C   0  0  0  0  0  0  0  0  0  0  0  0
    0.0000   -3.3000    0.0000 C   0  0  0  0  0  0  0  0  0  0  0  0
    0.7145   -2.8875    0.0000 N   0  0  0  0  0  0  0  0  0  0  0  0
    1.4289   -3.3000    0.0000 C   0  0  0  0  0  0  0  0  0  0  0  0
    1.4289   -4.1250    0.0000 O   0  0  0  0  0  0  0  0  0  0  0  0
    2.1434   -2.8875    0.0000 C   0  0  0  0  0  0  0  0  0  0  0  0
    2.8579   -3.3000    0.0000 C   0  0  0  0  0  0  0  0  0  0  0  0
    3.5724   -2.8875    0.0000 C   0  0  0  0  0  0  0  0  0  0  0  0
    4.2868   -3.3000    0.0000 C   0  0  0  0  0  0  0  0  0  0  0  0
    5.0013   -2.8875    0.0000 C   0  0  0  0  0  0  0  0  0  0  0  0
    5.0013   -2.0625    0.0000 C   0  0  0  0  0  0  0  0  0  0  0  0
    5.7158   -1.6500    0.0000 O   0  0  0  0  0  0  0  0  0  0  0  0
    4.2868   -1.6500    0.0000 C   0  0  0  0  0  0  0  0  0  0  0  0
    3.5724   -2.0625    0.0000 C   0  0  0  0  0  0  0  0  0  0  0  0
  1  2  1  0  0  0  0
  2  3  2  0  0  0  0
  2  4  1  0  0  0  0
  5  4  2  0  0  0  0
  6  5  1  0  0  0  0
  7  6  2  0  0  0  0
  8  7  1  0  0  0  0
  9  8  2  0  0  0  0
  4  9  1  0  0  0  0
  9 10  1  0  0  0  0
 10 11  1  0  0  0  0
 11 12  2  0  0  0  0
 11 13  1  0  0  0  0
 13 14  1  0  0  0  0
 14 15  1  0  0  0  0
 16 15  1  0  0  0  0
 17 16  2  0  0  0  0
 18 17  1  0  0  0  0
 18 19  1  0  0  0  0
 20 18  2  0  0  0  0
 21 20  1  0  0  0  0
 15 21  2  0  0  0  0
M  END
> <RowID>
246

> <Original_SMILES>
OC(=O)C1=CC=CC=C1NC(=O)CCC1C=CC(O)=CC=1

> <Canonical_QSARr>
OC(=O)C1=CC=CC=C1NC(=O)CCC1C=CC(O)=CC=1

> <InChI_Code_QSARr>
InChI=1S/C16H15NO4/c18-12-8-5-11(6-9-12)7-10-15(19)17-14-4-2-1-3-13(14)16(20)21/h1-6,8-9,18H,7,10H2,(H,17,19)(H,20,21)

> <InChI Key_QSARr>
DLFOKZQWYFNKCL-UHFFFAOYSA-N

> <Salt_Solvent>


> <Salt_Solvent_ID>
0

> <Number of connected components>
1

$$$$
Molecule_247
  Mrv2316 01072400032D          

 13 13  0  0  0  0            999 V2000
    2.3632   -0.7933    0.0000 C   0  0  0  0  0  0  0  0  0  0  0  0
    1.6488   -0.3808    0.0000 O   0  0  0  0  0  0  0  0  0  0  0  0
    1.6488    0.4442    0.0000 C   0  0  0  0  0  0  0  0  0  0  0  0
    2.3632    0.8567    0.0000 O   0  0  0  0  0  0  0  0  0  0  0  0
    0.9343    0.8567    0.0000 C   0  0  0  0  0  0  0  0  0  0  0  0
    0.9343    1.6817    0.0000 N   0  0  0  0  0  0  0  0  0  0  0  0
    0.2198    2.0942    0.0000 C   0  0  0  0  0  0  0  0  0  0  0  0
    0.2198    2.9192    0.0000 Cl  0  0  0  0  0  0  0  0  0  0  0  0
   -0.4946    1.6817    0.0000 C   0  0  0  0  0  0  0  0  0  0  0  0
   -1.2091    2.0942    0.0000 Cl  0  0  0  0  0  0  0  0  0  0  0  0
   -0.4946    0.8567    0.0000 N   0  0  0  0  0  0  0  0  0  0  0  0
    0.2198    0.4442    0.0000 C   0  0  0  0  0  0  0  0  0  0  0  0
    0.2198   -0.3808    0.0000 N   0  0  0  0  0  0  0  0  0  0  0  0
  1  2  1  0  0  0  0
  2  3  1  0  0  0  0
  3  4  2  0  0  0  0
  3  5  1  0  0  0  0
  6  5  2  0  0  0  0
  7  6  1  0  0  0  0
  7  8  1  0  0  0  0
  9  7  2  0  0  0  0
  9 10  1  0  0  0  0
 11  9  1  0  0  0  0
 12 11  2  0  0  0  0
  5 12  1  0  0  0  0
 12 13  1  0  0  0  0
M  END
> <RowID>
247

> <Original_SMILES>
COC(=O)C1=NC(Cl)=C(Cl)N=C1N

> <Canonical_QSARr>
COC(=O)C1=NC(Cl)=C(Cl)N=C1N

> <InChI_Code_QSARr>
InChI=1S/C6H5Cl2N3O2/c1-13-6(12)2-5(9)11-4(8)3(7)10-2/h1H3,(H2,9,11)

> <InChI Key_QSARr>
USYMCUGEGUFUBI-UHFFFAOYSA-N

> <Salt_Solvent>


> <Salt_Solvent_ID>
0

> <Number of connected components>
1

$$$$
Molecule_248
  Mrv2316 01072400032D          

 16 16  0  0  0  0            999 V2000
    2.9918   -0.5930    0.0000 C   0  0  0  0  0  0  0  0  0  0  0  0
    2.2774   -0.1805    0.0000 C   0  0  0  0  0  0  0  0  0  0  0  0
    2.6899    0.5340    0.0000 C   0  0  0  0  0  0  0  0  0  0  0  0
    1.8649   -0.8949    0.0000 C   0  0  0  0  0  0  0  0  0  0  0  0
    1.5629    0.2320    0.0000 C   0  0  0  0  0  0  0  0  0  0  0  0
    1.5629    1.0570    0.0000 C   0  0  0  0  0  0  0  0  0  0  0  0
    0.8484    1.4695    0.0000 C   0  0  0  0  0  0  0  0  0  0  0  0
    0.8484    2.2945    0.0000 C   0  0  0  0  0  0  0  0  0  0  0  0
    0.1340    1.0570    0.0000 C   0  0  0  0  0  0  0  0  0  0  0  0
   -0.5805    1.4695    0.0000 C   0  0  0  0  0  0  0  0  0  0  0  0
   -1.2950    1.0570    0.0000 C   0  0  0  0  0  0  0  0  0  0  0  0
   -2.0094    0.6445    0.0000 N   0  0  0  0  0  0  0  0  0  0  0  0
    0.1340    0.2320    0.0000 C   0  0  0  0  0  0  0  0  0  0  0  0
   -0.5805   -0.1805    0.0000 C   0  0  0  0  0  0  0  0  0  0  0  0
    0.8484   -0.1805    0.0000 C   0  0  0  0  0  0  0  0  0  0  0  0
    0.8484   -1.0055    0.0000 O   0  0  0  0  0  0  0  0  0  0  0  0
  1  2  1  0  0  0  0
  2  3  1  0  0  0  0
  2  4  1  0  0  0  0
  2  5  1  0  0  0  0
  6  5  1  0  0  0  0
  7  6  2  0  0  0  0
  7  8  1  0  0  0  0
  9  7  1  0  0  0  0
  9 10  1  0  0  0  0
 10 11  1  0  0  0  0
 11 12  3  0  0  0  0
 13  9  2  0  0  0  0
 13 14  1  0  0  0  0
 15 13  1  0  0  0  0
  5 15  2  0  0  0  0
 15 16  1  0  0  0  0
M  END
> <RowID>
248

> <Original_SMILES>
CC(C)(C)C1C=C(C)C(CC#N)=C(C)C=1O

> <Canonical_QSARr>
CC(C)(C)C1C=C(C)C(CC#N)=C(C)C=1O

> <InChI_Code_QSARr>
InChI=1S/C14H19NO/c1-9-8-12(14(3,4)5)13(16)10(2)11(9)6-7-15/h8,16H,6H2,1-5H3

> <InChI Key_QSARr>
OUKJZHRCKQJXSU-UHFFFAOYSA-N

> <Salt_Solvent>


> <Salt_Solvent_ID>
0

> <Number of connected components>
1

$$$$
Molecule_249
  Mrv2316 01072400032D          

 38 39  0  0  0  0            999 V2000
    2.9172   -2.1582    0.0000 C   0  0  0  0  0  0  0  0  0  0  0  0
    2.1071   -2.0023    0.0000 C   0  0  0  0  0  0  0  0  0  0  0  0
    1.8371   -1.2227    0.0000 O   0  0  0  0  0  0  0  0  0  0  0  0
    1.5670   -2.6259    0.0000 N   0  0  0  0  0  0  0  0  0  0  0  0
    0.7569   -2.4700    0.0000 C   0  0  0  0  0  0  0  0  0  0  0  0
    0.4868   -1.6905    0.0000 C   0  0  0  0  0  0  0  0  0  0  0  0
   -0.3233   -1.5345    0.0000 C   0  0  0  0  0  0  0  0  0  0  0  0
   -0.5933   -0.7550    0.0000 N   0  0  0  0  0  0  0  0  0  0  0  0
   -1.4035   -0.5991    0.0000 C   0  0  0  0  0  0  0  0  0  0  0  0
   -1.6735    0.1805    0.0000 C   0  0  0  0  0  0  0  0  0  0  0  0
   -1.1334    0.8041    0.0000 O   0  0  0  0  0  0  0  0  0  0  0  0
   -2.4837    0.3364    0.0000 O   0  0  0  0  0  0  0  0  0  0  0  0
   -2.7537    1.1159    0.0000 C   0  0  0  0  0  0  0  0  0  0  0  0
   -0.0533   -0.1314    0.0000 C   0  0  0  0  0  0  0  0  0  0  0  0
   -0.3233    0.6482    0.0000 C   0  0  0  0  0  0  0  0  0  0  0  0
    0.7569   -0.2873    0.0000 C   0  0  0  0  0  0  0  0  0  0  0  0
    1.0269   -1.0668    0.0000 O   0  0  0  0  0  0  0  0  0  0  0  0
    1.2970    0.3364    0.0000 O   0  0  0  0  0  0  0  0  0  0  0  0
    2.1071    0.1805    0.0000 C   0  0  0  0  0  0  0  0  0  0  0  0
   -0.8634   -2.1582    0.0000 C   0  0  0  0  0  0  0  0  0  0  0  0
   -1.6735   -2.0023    0.0000 O   0  0  0  0  0  0  0  0  0  0  0  0
   -2.2136   -2.6259    0.0000 C   0  0  0  0  0  0  0  0  0  0  0  0
   -0.5933   -2.9377    0.0000 C   0  0  0  0  0  0  0  0  0  0  0  0
    0.2168   -3.0936    0.0000 C   0  0  0  0  0  0  0  0  0  0  0  0
    0.4868   -3.8732    0.0000 N   0  0  0  0  0  0  0  0  0  0  0  0
   -0.0533   -4.4968    0.0000 N   0  0  0  0  0  0  0  0  0  0  0  0
    0.2168   -5.2764    0.0000 C   0  0  0  0  0  0  0  0  0  0  0  0
   -0.3233   -5.9000    0.0000 C   0  0  0  0  0  0  0  0  0  0  0  0
   -1.1334   -5.7441    0.0000 Cl  0  0  0  0  0  0  0  0  0  0  0  0
   -0.0533   -6.6796    0.0000 C   0  0  0  0  0  0  0  0  0  0  0  0
    0.7569   -6.8355    0.0000 C   0  0  0  0  0  0  0  0  0  0  0  0
    1.0269   -7.6150    0.0000 N   0  3  0  0  0  0  0  0  0  0  0  0
    1.8371   -7.7710    0.0000 O   0  5  0  0  0  0  0  0  0  0  0  0
    0.4868   -8.2387    0.0000 O   0  0  0  0  0  0  0  0  0  0  0  0
    1.2970   -6.2119    0.0000 C   0  0  0  0  0  0  0  0  0  0  0  0
    1.0269   -5.4323    0.0000 C   0  0  0  0  0  0  0  0  0  0  0  0
    1.5670   -4.8087    0.0000 C   0  0  0  0  0  0  0  0  0  0  0  0
    2.1071   -4.1850    0.0000 N   0  0  0  0  0  0  0  0  0  0  0  0
  1  2  1  0  0  0  0
  2  3  2  0  0  0  0
  2  4  1  0  0  0  0
  4  5  1  0  0  0  0
  6  5  1  0  0  0  0
  7  6  2  0  0  0  0
  7  8  1  0  0  0  0
  8  9  1  0  0  0  0
  9 10  1  0  0  0  0
 10 11  2  0  0  0  0
 10 12  1  0  0  0  0
 12 13  1  0  0  0  0
  8 14  1  0  0  0  0
 14 15  1  0  0  0  0
 14 16  1  0  0  0  0
 16 17  2  0  0  0  0
 16 18  1  0  0  0  0
 18 19  1  0  0  0  0
 20  7  1  0  0  0  0
 20 21  1  0  0  0  0
 21 22  1  0  0  0  0
 23 20  2  0  0  0  0
 24 23  1  0  0  0  0
  5 24  2  0  0  0  0
 25 24  1  4  0  0  0
 25 26  2  0  0  0  0
 26 27  1  0  0  0  0
 28 27  1  0  0  0  0
 28 29  1  0  0  0  0
 30 28  2  0  0  0  0
 31 30  1  0  0  0  0
 31 32  1  0  0  0  0
 32 33  1  0  0  0  0
 32 34  2  0  0  0  0
 35 31  2  0  0  0  0
 36 35  1  0  0  0  0
 27 36  2  0  0  0  0
 36 37  1  0  0  0  0
 37 38  3  0  0  0  0
M  CHG  2  32   1  33  -1
M  END
> <RowID>
249

> <Original_SMILES>
CC(=O)NC1C=C(C(=CC=1N=NC1C(Cl)=CC(=CC=1C#N)[N+]([O-])=O)OC)N(CC(=O)OC)C(C)C(=O)OC

> <Canonical_QSARr>
CC(=O)NC1C=C(C(=CC=1N=NC1C(Cl)=CC(=CC=1C#N)[N+]([O-])=O)OC)N(CC(=O)OC)C(C)C(=O)OC

> <InChI_Code_QSARr>
InChI=1S/C23H23ClN6O8/c1-12(23(33)38-5)29(11-21(32)37-4)19-8-17(26-13(2)31)18(9-20(19)36-3)27-28-22-14(10-25)6-15(30(34)35)7-16(22)24/h6-9,12H,11H2,1-5H3,(H,26,31)

> <InChI Key_QSARr>
WMGAWENFKFQMMN-UHFFFAOYSA-N

> <Salt_Solvent>


> <Salt_Solvent_ID>
0

> <Number of connected components>
1

$$$$
Molecule_250
  Mrv2316 01072400032D          

 47 51  0  0  0  0            999 V2000
    1.5201    3.2473    0.0000 C   0  0  0  0  0  0  0  0  0  0  0  0
    1.5201    2.4223    0.0000 O   0  0  0  0  0  0  0  0  0  0  0  0
    2.2346    2.0098    0.0000 C   0  0  0  0  0  0  0  0  0  0  0  0
    2.9491    2.4223    0.0000 C   0  0  0  0  0  0  0  0  0  0  0  0
    3.6636    2.0098    0.0000 C   0  0  0  0  0  0  0  0  0  0  0  0
    4.3780    2.4223    0.0000 O   0  0  0  0  0  0  0  0  0  0  0  0
    4.3780    3.2473    0.0000 C   0  0  0  0  0  0  0  0  0  0  0  0
    3.6636    1.1848    0.0000 C   0  0  0  0  0  0  0  0  0  0  0  0
    4.3780    0.7723    0.0000 Cl  0  0  0  0  0  0  0  0  0  0  0  0
    2.9491    0.7723    0.0000 C   0  0  0  0  0  0  0  0  0  0  0  0
    2.2346    1.1848    0.0000 C   0  0  0  0  0  0  0  0  0  0  0  0
    1.5201    0.7723    0.0000 N   0  0  0  0  0  0  0  0  0  0  0  0
    1.5201   -0.0527    0.0000 C   0  0  0  0  0  0  0  0  0  0  0  0
    0.8057   -0.4652    0.0000 O   0  0  0  0  0  0  0  0  0  0  0  0
    2.2346   -0.4652    0.0000 C   0  0  0  0  0  0  0  0  0  0  0  0
    2.9491   -0.0527    0.0000 C   0  0  0  0  0  0  0  0  0  0  0  0
    3.6636   -0.4652    0.0000 C   0  0  0  0  0  0  0  0  0  0  0  0
    4.3780   -0.0527    0.0000 C   0  0  0  0  0  0  0  0  0  0  0  0
    5.0925   -0.4652    0.0000 C   0  0  0  0  0  0  0  0  0  0  0  0
    5.0925   -1.2902    0.0000 C   0  0  0  0  0  0  0  0  0  0  0  0
    4.3780   -1.7027    0.0000 C   0  0  0  0  0  0  0  0  0  0  0  0
    3.6636   -1.2902    0.0000 C   0  0  0  0  0  0  0  0  0  0  0  0
    2.9491   -1.7027    0.0000 C   0  0  0  0  0  0  0  0  0  0  0  0
    2.9491   -2.5277    0.0000 N   0  0  0  0  0  0  0  0  0  0  0  0
    2.2346   -2.9402    0.0000 N   0  0  0  0  0  0  0  0  0  0  0  0
    2.2346   -3.7652    0.0000 C   0  0  0  0  0  0  0  0  0  0  0  0
    1.5201   -4.1777    0.0000 C   0  0  0  0  0  0  0  0  0  0  0  0
    1.5201   -5.0027    0.0000 C   0  0  0  0  0  0  0  0  0  0  0  0
    0.8057   -5.4152    0.0000 C   0  0  0  0  0  0  0  0  0  0  0  0
    0.8057   -6.2402    0.0000 O   0  0  0  0  0  0  0  0  0  0  0  0
    0.0912   -5.0027    0.0000 N   0  0  0  0  0  0  0  0  0  0  0  0
   -0.6233   -5.4152    0.0000 C   0  0  0  0  0  0  0  0  0  0  0  0
   -1.3377   -5.0027    0.0000 C   0  0  0  0  0  0  0  0  0  0  0  0
   -2.0522   -5.4152    0.0000 C   0  0  0  0  0  0  0  0  0  0  0  0
   -2.0522   -6.2402    0.0000 C   0  0  0  0  0  0  0  0  0  0  0  0
   -2.7667   -6.6527    0.0000 C   0  0  0  0  0  0  0  0  0  0  0  0
   -2.7667   -7.4777    0.0000 N   0  0  0  0  0  0  0  0  0  0  0  0
   -3.4811   -6.2402    0.0000 O   0  0  0  0  0  0  0  0  0  0  0  0
   -1.3377   -6.6527    0.0000 C   0  0  0  0  0  0  0  0  0  0  0  0
   -0.6233   -6.2402    0.0000 C   0  0  0  0  0  0  0  0  0  0  0  0
    2.2346   -5.4152    0.0000 C   0  0  0  0  0  0  0  0  0  0  0  0
    2.9491   -5.0027    0.0000 C   0  0  0  0  0  0  0  0  0  0  0  0
    2.9491   -4.1777    0.0000 C   0  0  0  0  0  0  0  0  0  0  0  0
    3.6636   -3.7652    0.0000 O   0  0  0  0  0  0  0  0  0  0  0  0
    4.3780   -4.1777    0.0000 C   0  0  0  0  0  0  0  0  0  0  0  0
    2.2346   -1.2902    0.0000 C   0  0  0  0  0  0  0  0  0  0  0  0
    1.5201   -1.7027    0.0000 O   0  0  0  0  0  0  0  0  0  0  0  0
  1  2  1  0  0  0  0
  2  3  1  0  0  0  0
  4  3  2  0  0  0  0
  5  4  1  0  0  0  0
  5  6  1  0  0  0  0
  6  7  1  0  0  0  0
  8  5  2  0  0  0  0
  8  9  1  0  0  0  0
 10  8  1  0  0  0  0
 11 10  2  0  0  0  0
  3 11  1  0  0  0  0
 11 12  1  0  0  0  0
 12 13  1  0  0  0  0
 13 14  2  0  0  0  0
 13 15  1  0  0  0  0
 16 15  2  0  0  0  0
 17 16  1  0  0  0  0
 17 18  2  0  0  0  0
 18 19  1  0  0  0  0
 19 20  2  0  0  0  0
 20 21  1  0  0  0  0
 21 22  2  0  0  0  0
 22 17  1  0  0  0  0
 23 22  1  0  0  0  0
 24 23  1  4  0  0  0
 24 25  2  0  0  0  0
 25 26  1  0  0  0  0
 27 26  2  0  0  0  0
 28 27  1  0  0  0  0
 28 29  1  0  0  0  0
 29 30  2  0  0  0  0
 29 31  1  0  0  0  0
 31 32  1  0  0  0  0
 33 32  1  0  0  0  0
 34 33  2  0  0  0  0
 35 34  1  0  0  0  0
 35 36  1  0  0  0  0
 36 37  1  0  0  0  0
 36 38  2  0  0  0  0
 39 35  2  0  0  0  0
 40 39  1  0  0  0  0
 32 40  2  0  0  0  0
 41 28  2  0  0  0  0
 42 41  1  0  0  0  0
 43 42  2  0  0  0  0
 26 43  1  0  0  0  0
 43 44  1  0  0  0  0
 44 45  1  0  0  0  0
 46 23  2  0  0  0  0
 15 46  1  0  0  0  0
 46 47  1  0  0  0  0
M  END
> <RowID>
250

> <Original_SMILES>
COC1=CC(OC)=C(Cl)C=C1NC(=O)C1=CC2=CC=CC=C2C(N=NC2=CC(=CC=C2OC)C(=O)NC2C=CC(=CC=2)C(N)=O)=C1O

> <Canonical_QSARr>
COC1=CC(OC)=C(Cl)C=C1NC(=O)C1=CC2=CC=CC=C2C(N=NC2=CC(=CC=C2OC)C(=O)NC2C=CC(=CC=2)C(N)=O)=C1O

> <InChI_Code_QSARr>
InChI=1S/C34H28ClN5O7/c1-45-27-13-10-20(33(43)37-21-11-8-18(9-12-21)32(36)42)15-26(27)39-40-30-22-7-5-4-6-19(22)14-23(31(30)41)34(44)38-25-16-24(35)28(46-2)17-29(25)47-3/h4-17,41H,1-3H3,(H2,36,42)(H,37,43)(H,38,44)

> <InChI Key_QSARr>
DZYFEMTUCDZMSP-UHFFFAOYSA-N

> <Salt_Solvent>


> <Salt_Solvent_ID>
0

> <Number of connected components>
1

$$$$
Molecule_251
  Mrv2316 01072400032D          

 26 27  0  0  0  0            999 V2000
    4.5067   -5.3308    0.0000 C   0  0  0  0  0  0  0  0  0  0  0  0
    3.7922   -5.7433    0.0000 C   0  0  0  0  0  0  0  0  0  0  0  0
    3.7922   -6.5683    0.0000 C   0  0  0  0  0  0  0  0  0  0  0  0
    4.5067   -6.9808    0.0000 C   0  0  0  0  0  0  0  0  0  0  0  0
    3.0777   -5.3308    0.0000 C   0  0  0  0  0  0  0  0  0  0  0  0
    3.0777   -4.5058    0.0000 C   0  0  0  0  0  0  0  0  0  0  0  0
    2.3632   -4.0933    0.0000 C   0  0  0  0  0  0  0  0  0  0  0  0
    2.3632   -3.2683    0.0000 N   0  0  0  0  0  0  0  0  0  0  0  0
    3.0777   -2.8558    0.0000 N   0  0  0  0  0  0  0  0  0  0  0  0
    3.0777   -2.0308    0.0000 C   0  0  0  0  0  0  0  0  0  0  0  0
    3.7922   -1.6183    0.0000 C   0  0  0  0  0  0  0  0  0  0  0  0
    3.7922   -0.7933    0.0000 C   0  0  0  0  0  0  0  0  0  0  0  0
    3.0777   -0.3808    0.0000 C   0  0  0  0  0  0  0  0  0  0  0  0
    3.0777    0.4442    0.0000 N   0  3  0  0  0  0  0  0  0  0  0  0
    2.3632    0.8567    0.0000 O   0  5  0  0  0  0  0  0  0  0  0  0
    3.7922    0.8567    0.0000 O   0  0  0  0  0  0  0  0  0  0  0  0
    2.3632   -0.7933    0.0000 C   0  0  0  0  0  0  0  0  0  0  0  0
    2.3632   -1.6183    0.0000 C   0  0  0  0  0  0  0  0  0  0  0  0
    1.6488   -4.5058    0.0000 C   0  0  0  0  0  0  0  0  0  0  0  0
    1.6488   -5.3308    0.0000 C   0  0  0  0  0  0  0  0  0  0  0  0
    0.9343   -5.7433    0.0000 C   0  0  0  0  0  0  0  0  0  0  0  0
    0.2198   -5.3308    0.0000 C   0  0  0  0  0  0  0  0  0  0  0  0
    0.9343   -6.5683    0.0000 C   0  0  0  0  0  0  0  0  0  0  0  0
    0.2198   -6.9808    0.0000 C   0  0  0  0  0  0  0  0  0  0  0  0
    2.3632   -5.7433    0.0000 C   0  0  0  0  0  0  0  0  0  0  0  0
    2.3632   -6.5683    0.0000 O   0  0  0  0  0  0  0  0  0  0  0  0
  1  2  1  0  0  0  0
  2  3  1  0  0  0  0
  3  4  1  0  0  0  0
  2  5  1  0  0  0  0
  6  5  2  0  0  0  0
  7  6  1  0  0  0  0
  8  7  1  4  0  0  0
  8  9  2  0  0  0  0
  9 10  1  0  0  0  0
 11 10  1  0  0  0  0
 12 11  2  0  0  0  0
 13 12  1  0  0  0  0
 13 14  1  0  0  0  0
 14 15  1  0  0  0  0
 14 16  2  0  0  0  0
 17 13  2  0  0  0  0
 18 17  1  0  0  0  0
 10 18  2  0  0  0  0
 19  7  2  0  0  0  0
 20 19  1  0  0  0  0
 20 21  1  0  0  0  0
 21 22  1  0  0  0  0
 21 23  1  0  0  0  0
 23 24  1  0  0  0  0
 25 20  2  0  0  0  0
  5 25  1  0  0  0  0
 25 26  1  0  0  0  0
M  CHG  2  14   1  15  -1
M  END
> <RowID>
251

> <Original_SMILES>
CC(CC)C1=CC(=CC(C(C)CC)=C1O)N=NC1C=CC(=CC=1)[N+]([O-])=O

> <Canonical_QSARr>
CC(CC)C1=CC(=CC(C(C)CC)=C1O)N=NC1C=CC(=CC=1)[N+]([O-])=O

> <InChI_Code_QSARr>
InChI=1S/C20H25N3O3/c1-5-13(3)18-11-16(12-19(20(18)24)14(4)6-2)22-21-15-7-9-17(10-8-15)23(25)26/h7-14,24H,5-6H2,1-4H3

> <InChI Key_QSARr>
JCYAHFVUGYOYNR-UHFFFAOYSA-N

> <Salt_Solvent>


> <Salt_Solvent_ID>
0

> <Number of connected components>
1

$$$$
Molecule_252
  Mrv2316 01072400032D          

 36 36  0  0  0  0            999 V2000
    3.5724   -8.6625    0.0000 C   0  0  0  0  0  0  0  0  0  0  0  0
    4.2868   -9.0750    0.0000 C   0  0  0  0  0  0  0  0  0  0  0  0
    4.2868   -9.9000    0.0000 C   0  0  0  0  0  0  0  0  0  0  0  0
    5.0013   -8.6625    0.0000 C   0  0  0  0  0  0  0  0  0  0  0  0
    5.7158   -9.0750    0.0000 C   0  0  0  0  0  0  0  0  0  0  0  0
    6.4302   -8.6625    0.0000 C   0  0  0  0  0  0  0  0  0  0  0  0
    7.1447   -9.0750    0.0000 C   0  0  0  0  0  0  0  0  0  0  0  0
    7.8592   -8.6625    0.0000 C   0  0  0  0  0  0  0  0  0  0  0  0
    8.5736   -9.0750    0.0000 C   0  0  0  0  0  0  0  0  0  0  0  0
    9.2881   -8.6625    0.0000 C   0  0  0  0  0  0  0  0  0  0  0  0
   10.0026   -9.0750    0.0000 C   0  0  0  0  0  0  0  0  0  0  0  0
   10.7171   -8.6625    0.0000 C   0  0  0  0  0  0  0  0  0  0  0  0
   11.4315   -9.0750    0.0000 C   0  0  0  0  0  0  0  0  0  0  0  0
   12.1460   -8.6625    0.0000 O   0  0  0  0  0  0  0  0  0  0  0  0
   12.8605   -9.0750    0.0000 P   0  0  0  0  0  0  0  0  0  0  0  0
   12.8605   -9.9000    0.0000 O   0  0  0  0  0  0  0  0  0  0  0  0
   13.5749  -10.3125    0.0000 C   0  0  0  0  0  0  0  0  0  0  0  0
   13.5749  -11.1375    0.0000 C   0  0  0  0  0  0  0  0  0  0  0  0
   14.2894  -11.5500    0.0000 C   0  0  0  0  0  0  0  0  0  0  0  0
   15.0039  -11.1375    0.0000 C   0  0  0  0  0  0  0  0  0  0  0  0
   15.0039  -10.3125    0.0000 C   0  0  0  0  0  0  0  0  0  0  0  0
   14.2894   -9.9000    0.0000 C   0  0  0  0  0  0  0  0  0  0  0  0
   13.5749   -8.6625    0.0000 O   0  0  0  0  0  0  0  0  0  0  0  0
   14.2894   -9.0750    0.0000 C   0  0  0  0  0  0  0  0  0  0  0  0
   15.0039   -8.6625    0.0000 C   0  0  0  0  0  0  0  0  0  0  0  0
   15.7184   -9.0750    0.0000 C   0  0  0  0  0  0  0  0  0  0  0  0
   16.4328   -8.6625    0.0000 C   0  0  0  0  0  0  0  0  0  0  0  0
   17.1473   -9.0750    0.0000 C   0  0  0  0  0  0  0  0  0  0  0  0
   17.8618   -8.6625    0.0000 C   0  0  0  0  0  0  0  0  0  0  0  0
   18.5762   -9.0750    0.0000 C   0  0  0  0  0  0  0  0  0  0  0  0
   19.2907   -8.6625    0.0000 C   0  0  0  0  0  0  0  0  0  0  0  0
   20.0052   -9.0750    0.0000 C   0  0  0  0  0  0  0  0  0  0  0  0
   20.7197   -8.6625    0.0000 C   0  0  0  0  0  0  0  0  0  0  0  0
   21.4341   -9.0750    0.0000 C   0  0  0  0  0  0  0  0  0  0  0  0
   22.1486   -8.6625    0.0000 C   0  0  0  0  0  0  0  0  0  0  0  0
   21.4341   -9.9000    0.0000 C   0  0  0  0  0  0  0  0  0  0  0  0
  1  2  1  0  0  0  0
  2  3  1  0  0  0  0
  2  4  1  0  0  0  0
  4  5  1  0  0  0  0
  5  6  1  0  0  0  0
  6  7  1  0  0  0  0
  7  8  1  0  0  0  0
  8  9  1  0  0  0  0
  9 10  1  0  0  0  0
 10 11  1  0  0  0  0
 11 12  1  0  0  0  0
 12 13  1  0  0  0  0
 13 14  1  0  0  0  0
 14 15  1  0  0  0  0
 15 16  1  0  0  0  0
 16 17  1  0  0  0  0
 18 17  1  0  0  0  0
 19 18  2  0  0  0  0
 20 19  1  0  0  0  0
 21 20  2  0  0  0  0
 22 21  1  0  0  0  0
 17 22  2  0  0  0  0
 15 23  1  0  0  0  0
 23 24  1  0  0  0  0
 24 25  1  0  0  0  0
 25 26  1  0  0  0  0
 26 27  1  0  0  0  0
 27 28  1  0  0  0  0
 28 29  1  0  0  0  0
 29 30  1  0  0  0  0
 30 31  1  0  0  0  0
 31 32  1  0  0  0  0
 32 33  1  0  0  0  0
 33 34  1  0  0  0  0
 34 35  1  0  0  0  0
 34 36  1  0  0  0  0
M  END
> <RowID>
252

> <Original_SMILES>
CC(C)CCCCCCCCCCOP(OC1C=CC=CC=1)OCCCCCCCCCCC(C)C

> <Canonical_QSARr>
CC(C)CCCCCCCCCCOP(OC1C=CC=CC=1)OCCCCCCCCCCC(C)C

> <InChI_Code_QSARr>
InChI=1S/C32H59O3P/c1-30(2)24-18-13-9-5-7-11-15-22-28-33-36(35-32-26-20-17-21-27-32)34-29-23-16-12-8-6-10-14-19-25-31(3)4/h17,20-21,26-27,30-31H,5-16,18-19,22-25,28-29H2,1-4H3

> <InChI Key_QSARr>
ZCEURBBJHMJEOG-UHFFFAOYSA-N

> <Salt_Solvent>


> <Salt_Solvent_ID>
0

> <Number of connected components>
1

$$$$
Molecule_253
  Mrv2316 01072400032D          

 14 14  0  0  0  0            999 V2000
    1.4074    2.7658    0.0000 C   0  0  0  0  0  0  0  0  0  0  0  0
    0.9949    2.0514    0.0000 O   0  0  0  0  0  0  0  0  0  0  0  0
    1.4074    1.3369    0.0000 C   0  0  0  0  0  0  0  0  0  0  0  0
    0.9949    0.6224    0.0000 C   0  0  0  0  0  0  0  0  0  0  0  0
    0.1699    0.6224    0.0000 C   0  0  0  0  0  0  0  0  0  0  0  0
   -0.2426   -0.0921    0.0000 C   0  0  0  0  0  0  0  0  0  0  0  0
    0.1699   -0.8065    0.0000 C   0  0  0  0  0  0  0  0  0  0  0  0
    0.9949   -0.8065    0.0000 C   0  0  0  0  0  0  0  0  0  0  0  0
    1.4074   -1.5210    0.0000 C   0  0  0  0  0  0  0  0  0  0  0  0
    2.2324   -1.5210    0.0000 C   0  0  0  0  0  0  0  0  0  0  0  0
    2.6449   -0.8065    0.0000 C   0  0  0  0  0  0  0  0  0  0  0  0
    2.2324   -0.0921    0.0000 C   0  0  0  0  0  0  0  0  0  0  0  0
    2.6449    0.6224    0.0000 C   0  0  0  0  0  0  0  0  0  0  0  0
    2.2324    1.3369    0.0000 C   0  0  0  0  0  0  0  0  0  0  0  0
  1  2  1  0  0  0  0
  2  3  1  0  0  0  0
  4  3  1  0  0  0  0
  5  4  1  0  0  0  0
  6  5  1  0  0  0  0
  7  6  1  0  0  0  0
  8  7  1  0  0  0  0
  9  8  1  0  0  0  0
 10  9  1  0  0  0  0
 11 10  1  0  0  0  0
 12 11  1  0  0  0  0
 13 12  1  0  0  0  0
 14 13  1  0  0  0  0
  3 14  1  0  0  0  0
M  END
> <RowID>
253

> <Original_SMILES>
COC1CCCCCCCCCCC1

> <Canonical_QSARr>
COC1CCCCCCCCCCC1

> <InChI_Code_QSARr>
InChI=1S/C13H26O/c1-14-13-11-9-7-5-3-2-4-6-8-10-12-13/h13H,2-12H2,1H3

> <InChI Key_QSARr>
WDSOYUINLRIGNV-UHFFFAOYSA-N

> <Salt_Solvent>


> <Salt_Solvent_ID>
0

> <Number of connected components>
1

$$$$
Molecule_254
  Mrv2316 01072400032D          

 10  9  0  0  0  0            999 V2000
    1.0461    1.4289    0.0000 C   0  0  0  0  0  0  0  0  0  0  0  0
    1.7605    1.8414    0.0000 C   0  0  0  0  0  0  0  0  0  0  0  0
    2.4750    1.4289    0.0000 O   0  0  0  0  0  0  0  0  0  0  0  0
    3.1895    1.8414    0.0000 C   0  0  0  0  0  0  0  0  0  0  0  0
    3.9039    1.4289    0.0000 C   0  0  0  0  0  0  0  0  0  0  0  0
    3.9039    0.6039    0.0000 C   0  0  0  0  0  0  0  0  0  0  0  0
    4.6184    1.8414    0.0000 O   0  0  0  0  0  0  0  0  0  0  0  0
    5.3329    1.4289    0.0000 C   0  0  0  0  0  0  0  0  0  0  0  0
    6.0474    1.8414    0.0000 C   0  0  0  0  0  0  0  0  0  0  0  0
    5.3329    0.6039    0.0000 O   0  0  0  0  0  0  0  0  0  0  0  0
  1  2  1  0  0  0  0
  2  3  1  0  0  0  0
  3  4  1  0  0  0  0
  4  5  1  0  0  0  0
  5  6  1  0  0  0  0
  5  7  1  0  0  0  0
  7  8  1  0  0  0  0
  8  9  1  0  0  0  0
  8 10  2  0  0  0  0
M  END
> <RowID>
254

> <Original_SMILES>
CCOCC(C)OC(C)=O

> <Canonical_QSARr>
CCOCC(C)OC(C)=O

> <InChI_Code_QSARr>
InChI=1S/C7H14O3/c1-4-9-5-6(2)10-7(3)8/h6H,4-5H2,1-3H3

> <InChI Key_QSARr>
LIPRQQHINVWJCH-UHFFFAOYSA-N

> <Salt_Solvent>


> <Salt_Solvent_ID>
0

> <Number of connected components>
1

$$$$
Molecule_255
  Mrv2316 01072400032D          

 13 13  0  0  0  0            999 V2000
    2.4732   -1.7452    0.0000 C   0  0  0  0  0  0  0  0  0  0  0  0
    1.7587   -1.3327    0.0000 C   0  0  0  0  0  0  0  0  0  0  0  0
    1.7587   -0.5077    0.0000 C   0  0  0  0  0  0  0  0  0  0  0  0
    1.0442   -0.0952    0.0000 C   0  0  0  0  0  0  0  0  0  0  0  0
    1.0442    0.7298    0.0000 N   0  0  0  0  0  0  0  0  0  0  0  0
    1.7587    1.1423    0.0000 C   0  0  0  0  0  0  0  0  0  0  0  0
    1.7587    1.9673    0.0000 C   0  0  0  0  0  0  0  0  0  0  0  0
    2.4732    0.7298    0.0000 O   0  0  0  0  0  0  0  0  0  0  0  0
    0.3298   -0.5077    0.0000 C   0  0  0  0  0  0  0  0  0  0  0  0
   -0.3847   -0.0952    0.0000 O   0  0  0  0  0  0  0  0  0  0  0  0
   -1.0992   -0.5077    0.0000 C   0  0  0  0  0  0  0  0  0  0  0  0
    0.3298   -1.3327    0.0000 C   0  0  0  0  0  0  0  0  0  0  0  0
    1.0442   -1.7452    0.0000 C   0  0  0  0  0  0  0  0  0  0  0  0
  1  2  1  0  0  0  0
  3  2  1  0  0  0  0
  4  3  2  0  0  0  0
  4  5  1  0  0  0  0
  5  6  1  0  0  0  0
  6  7  1  0  0  0  0
  6  8  2  0  0  0  0
  9  4  1  0  0  0  0
  9 10  1  0  0  0  0
 10 11  1  0  0  0  0
 12  9  2  0  0  0  0
 13 12  1  0  0  0  0
  2 13  2  0  0  0  0
M  END
> <RowID>
255

> <Original_SMILES>
CC1C=C(NC(C)=O)C(=CC=1)OC

> <Canonical_QSARr>
CC1C=C(NC(C)=O)C(=CC=1)OC

> <InChI_Code_QSARr>
InChI=1S/C10H13NO2/c1-7-4-5-10(13-3)9(6-7)11-8(2)12/h4-6H,1-3H3,(H,11,12)

> <InChI Key_QSARr>
POLMNXCVMYMLSF-UHFFFAOYSA-N

> <Salt_Solvent>


> <Salt_Solvent_ID>
0

> <Number of connected components>
1

$$$$
Molecule_256
  Mrv2316 01072400032D          

  4  3  0  0  0  0            999 V2000
    0.8250   -0.0000    0.0000 C   0  0  0  0  0  0  0  0  0  0  0  0
    1.2375    0.7145    0.0000 O   0  0  0  0  0  0  0  0  0  0  0  0
    1.2375   -0.7145    0.0000 O   0  0  0  0  0  0  0  0  0  0  0  0
    0.0000   -0.0000    0.0000 O   0  0  0  0  0  0  0  0  0  0  0  0
  1  2  1  0  0  0  0
  1  3  2  0  0  0  0
  1  4  1  0  0  0  0
M  END
> <RowID>
256

> <Original_SMILES>
[NH4+].[NH4+].[NH4+].[OH-].[OH-].[Zr+4].[O-]C([O-])=O.[O-]C([O-])=O

> <Canonical_QSARr>
OC(O)=O

> <InChI_Code_QSARr>
InChI=1S/CH2O3/c2-1(3)4/h(H2,2,3,4)

> <InChI Key_QSARr>
BVKZGUZCCUSVTD-UHFFFAOYSA-N

> <Salt_Solvent>
[NH4+].[OH-].[Zr+4]

> <Salt_Solvent_ID>
75

> <Number of connected components>
8

$$$$
Molecule_257
  Mrv2316 01072400032D          

 42 48  0  0  0  0            999 V2000
    1.4289   -4.9500    0.0000 C   0  0  0  0  0  0  0  0  0  0  0  0
    1.4289   -4.1250    0.0000 C   0  0  0  0  0  0  0  0  0  0  0  0
    0.7145   -3.7125    0.0000 C   0  0  0  0  0  0  0  0  0  0  0  0
    0.7145   -2.8875    0.0000 C   0  0  0  0  0  0  0  0  0  0  0  0
    1.4289   -2.4750    0.0000 N   0  0  0  0  0  0  0  0  0  0  0  0
    1.4289   -1.6500    0.0000 C   0  0  0  0  0  0  0  0  0  0  0  0
    2.1434   -1.2375    0.0000 C   0  0  0  0  0  0  0  0  0  0  0  0
    2.8579   -1.6500    0.0000 C   0  0  0  0  0  0  0  0  0  0  0  0
    3.5724   -1.2375    0.0000 C   0  0  0  0  0  0  0  0  0  0  0  0
    3.5724   -0.4125    0.0000 C   0  0  0  0  0  0  0  0  0  0  0  0
    2.8579    0.0000    0.0000 C   0  0  0  0  0  0  0  0  0  0  0  0
    2.1434   -0.4125    0.0000 C   0  0  0  0  0  0  0  0  0  0  0  0
    0.7145   -1.2375    0.0000 C   0  0  0  0  0  0  0  0  0  0  0  0
    0.7145   -0.4125    0.0000 C   0  0  0  0  0  0  0  0  0  0  0  0
    1.4289    0.0000    0.0000 C   0  0  0  0  0  0  0  0  0  0  0  0
    1.4289    0.8250    0.0000 C   0  0  0  0  0  0  0  0  0  0  0  0
    0.7145    1.2375    0.0000 C   0  0  0  0  0  0  0  0  0  0  0  0
    0.0000    0.8250    0.0000 C   0  0  0  0  0  0  0  0  0  0  0  0
    0.0000    0.0000    0.0000 C   0  0  0  0  0  0  0  0  0  0  0  0
    0.0000   -1.6500    0.0000 N   0  0  0  0  0  0  0  0  0  0  0  0
    0.0000   -2.4750    0.0000 N   0  0  0  0  0  0  0  0  0  0  0  0
    0.0000   -4.1250    0.0000 C   0  0  0  0  0  0  0  0  0  0  0  0
    0.0000   -4.9500    0.0000 C   0  0  0  0  0  0  0  0  0  0  0  0
    0.7145   -5.3625    0.0000 C   0  0  0  0  0  0  0  0  0  0  0  0
    0.7145   -6.1875    0.0000 C   0  0  0  0  0  0  0  0  0  0  0  0
    0.0000   -6.6000    0.0000 N   0  0  0  0  0  0  0  0  0  0  0  0
    0.0000   -7.4250    0.0000 C   0  0  0  0  0  0  0  0  0  0  0  0
   -0.7145   -7.8375    0.0000 C   0  0  0  0  0  0  0  0  0  0  0  0
   -1.4289   -7.4250    0.0000 C   0  0  0  0  0  0  0  0  0  0  0  0
   -2.1434   -7.8375    0.0000 C   0  0  0  0  0  0  0  0  0  0  0  0
   -2.1434   -8.6625    0.0000 C   0  0  0  0  0  0  0  0  0  0  0  0
   -1.4289   -9.0750    0.0000 C   0  0  0  0  0  0  0  0  0  0  0  0
   -0.7145   -8.6625    0.0000 C   0  0  0  0  0  0  0  0  0  0  0  0
    0.7145   -7.8375    0.0000 C   0  0  0  0  0  0  0  0  0  0  0  0
    0.7145   -8.6625    0.0000 C   0  0  0  0  0  0  0  0  0  0  0  0
    0.0000   -9.0750    0.0000 C   0  0  0  0  0  0  0  0  0  0  0  0
    0.0000   -9.9000    0.0000 C   0  0  0  0  0  0  0  0  0  0  0  0
    0.7145  -10.3125    0.0000 C   0  0  0  0  0  0  0  0  0  0  0  0
    1.4289   -9.9000    0.0000 C   0  0  0  0  0  0  0  0  0  0  0  0
    1.4289   -9.0750    0.0000 C   0  0  0  0  0  0  0  0  0  0  0  0
    1.4289   -7.4250    0.0000 N   0  0  0  0  0  0  0  0  0  0  0  0
    1.4289   -6.6000    0.0000 N   0  0  0  0  0  0  0  0  0  0  0  0
  2  1  2  0  0  0  0
  3  2  1  0  0  0  0
  3  4  1  0  0  0  0
  5  4  1  0  0  0  0
  6  5  2  0  0  0  0
  6  7  1  0  0  0  0
  8  7  1  0  0  0  0
  9  8  2  0  0  0  0
 10  9  1  0  0  0  0
 11 10  2  0  0  0  0
 12 11  1  0  0  0  0
  7 12  2  0  0  0  0
 13  6  1  0  0  0  0
 13 14  1  0  0  0  0
 15 14  1  0  0  0  0
 16 15  2  0  0  0  0
 17 16  1  0  0  0  0
 18 17  2  0  0  0  0
 19 18  1  0  0  0  0
 14 19  2  0  0  0  0
 20 13  2  0  0  0  0
 21 20  1  0  0  0  0
  4 21  2  0  0  0  0
 22  3  2  0  0  0  0
 23 22  1  0  0  0  0
 24 23  2  0  0  0  0
  1 24  1  0  0  0  0
 24 25  1  0  0  0  0
 26 25  1  0  0  0  0
 27 26  2  0  0  0  0
 27 28  1  0  0  0  0
 29 28  1  0  0  0  0
 30 29  2  0  0  0  0
 31 30  1  0  0  0  0
 32 31  2  0  0  0  0
 33 32  1  0  0  0  0
 28 33  2  0  0  0  0
 34 27  1  0  0  0  0
 34 35  1  0  0  0  0
 36 35  1  0  0  0  0
 37 36  2  0  0  0  0
 38 37  1  0  0  0  0
 39 38  2  0  0  0  0
 40 39  1  0  0  0  0
 35 40  2  0  0  0  0
 41 34  2  0  0  0  0
 42 41  1  0  0  0  0
 25 42  2  0  0  0  0
M  END
> <RowID>
257

> <Original_SMILES>
C1=CC(=CC=C1C1N=C(C(=NN=1)C1C=CC=CC=1)C1C=CC=CC=1)C1N=C(C(=NN=1)C1C=CC=CC=1)C1C=CC=CC=1

> <Canonical_QSARr>
C1=CC(=CC=C1C1N=C(C(=NN=1)C1C=CC=CC=1)C1C=CC=CC=1)C1N=C(C(=NN=1)C1C=CC=CC=1)C1C=CC=CC=1

> <InChI_Code_QSARr>
InChI=1S/C36H24N6/c1-5-13-25(14-6-1)31-33(27-17-9-3-10-18-27)39-41-35(37-31)29-21-23-30(24-22-29)36-38-32(26-15-7-2-8-16-26)34(40-42-36)28-19-11-4-12-20-28/h1-24H

> <InChI Key_QSARr>
NZTWOIMQWMZIRE-UHFFFAOYSA-N

> <Salt_Solvent>


> <Salt_Solvent_ID>
0

> <Number of connected components>
1

$$$$
Molecule_258
  Mrv2316 01072400032D          

 30 33  0  0  0  0            999 V2000
   -2.1434   -2.8875    0.0000 C   0  0  0  0  0  0  0  0  0  0  0  0
   -1.4289   -2.4750    0.0000 C   0  0  0  0  0  0  0  0  0  0  0  0
   -0.7144   -2.8875    0.0000 C   0  0  0  0  0  0  0  0  0  0  0  0
    0.0000   -2.4750    0.0000 C   0  0  0  0  0  0  0  0  0  0  0  0
    0.0000   -1.6500    0.0000 C   0  0  0  0  0  0  0  0  0  0  0  0
    0.7145   -1.2375    0.0000 C   0  0  0  0  0  0  0  0  0  0  0  0
    0.7145   -0.4125    0.0000 O   0  0  0  0  0  0  0  0  0  0  0  0
    1.4290    0.0000    0.0000 C   0  0  0  0  0  0  0  0  0  0  0  0
    2.1434   -0.4125    0.0000 C   0  0  0  0  0  0  0  0  0  0  0  0
    2.8579    0.0000    0.0000 O   0  0  0  0  0  0  0  0  0  0  0  0
    3.5724   -0.4125    0.0000 C   0  0  0  0  0  0  0  0  0  0  0  0
    3.5724   -1.2375    0.0000 O   0  0  0  0  0  0  0  0  0  0  0  0
    2.8579   -1.6500    0.0000 C   0  0  0  0  0  0  0  0  0  0  0  0
    2.8579   -2.4750    0.0000 C   0  0  0  0  0  0  0  0  0  0  0  0
    2.1434   -2.8875    0.0000 O   0  0  0  0  0  0  0  0  0  0  0  0
    3.5724   -2.8875    0.0000 C   0  0  0  0  0  0  0  0  0  0  0  0
    3.5724   -3.7125    0.0000 O   0  0  0  0  0  0  0  0  0  0  0  0
    2.1434   -1.2375    0.0000 C   0  0  0  0  0  0  0  0  0  0  0  0
    1.4290   -1.6500    0.0000 O   0  0  0  0  0  0  0  0  0  0  0  0
    4.2869   -0.0000    0.0000 C   0  0  0  0  0  0  0  0  0  0  0  0
    5.0013   -0.4125    0.0000 C   0  0  0  0  0  0  0  0  0  0  0  0
    5.7158   -0.0000    0.0000 C   0  0  0  0  0  0  0  0  0  0  0  0
    6.4303   -0.4125    0.0000 C   0  0  0  0  0  0  0  0  0  0  0  0
    5.7158    0.8250    0.0000 C   0  0  0  0  0  0  0  0  0  0  0  0
    6.4303    1.2375    0.0000 C   0  0  0  0  0  0  0  0  0  0  0  0
    5.0013    1.2375    0.0000 C   0  0  0  0  0  0  0  0  0  0  0  0
    4.2869    0.8250    0.0000 C   0  0  0  0  0  0  0  0  0  0  0  0
   -0.7144   -1.2375    0.0000 C   0  0  0  0  0  0  0  0  0  0  0  0
   -1.4289   -1.6500    0.0000 C   0  0  0  0  0  0  0  0  0  0  0  0
   -2.1434   -1.2375    0.0000 C   0  0  0  0  0  0  0  0  0  0  0  0
  1  2  1  0  0  0  0
  3  2  2  0  0  0  0
  4  3  1  0  0  0  0
  5  4  2  0  0  0  0
  5  6  1  0  0  0  0
  7  6  1  0  0  0  0
  8  7  1  0  0  0  0
  9  8  1  0  0  0  0
  9 10  1  0  0  0  0
 10 11  1  0  0  0  0
 11 12  1  0  0  0  0
 12 13  1  0  0  0  0
 13 14  1  0  0  0  0
 14 15  1  0  0  0  0
 14 16  1  0  0  0  0
 16 17  1  0  0  0  0
 13 18  1  0  0  0  0
 18  9  1  0  0  0  0
 19 18  1  0  0  0  0
  6 19  1  0  0  0  0
 11 20  1  0  0  0  0
 21 20  1  0  0  0  0
 22 21  2  0  0  0  0
 22 23  1  0  0  0  0
 24 22  1  0  0  0  0
 24 25  1  0  0  0  0
 26 24  2  0  0  0  0
 27 26  1  0  0  0  0
 20 27  2  0  0  0  0
 28  5  1  0  0  0  0
 29 28  2  0  0  0  0
  2 29  1  0  0  0  0
 29 30  1  0  0  0  0
M  END
> <RowID>
258

> <Original_SMILES>
CC1=CC=C(C=C1C)C1OCC2OC(OC(C2O1)C(O)CO)C1C=C(C)C(C)=CC=1

> <Canonical_QSARr>
CC1=CC=C(C=C1C)C1OCC2OC(OC(C2O1)C(O)CO)C1C=C(C)C(C)=CC=1

> <InChI_Code_QSARr>
InChI=1S/C24H30O6/c1-13-5-7-17(9-15(13)3)23-27-12-20-22(30-23)21(19(26)11-25)29-24(28-20)18-8-6-14(2)16(4)10-18/h5-10,19-26H,11-12H2,1-4H3

> <InChI Key_QSARr>
YWEWWNPYDDHZDI-UHFFFAOYSA-N

> <Salt_Solvent>


> <Salt_Solvent_ID>
0

> <Number of connected components>
1

$$$$
Molecule_260
  Mrv2316 01072400032D          

 15 16  0  0  0  0            999 V2000
    2.1434   -6.1325    0.0000 N   0  0  0  0  0  0  0  0  0  0  0  0
    2.1434   -5.3075    0.0000 C   0  0  0  0  0  0  0  0  0  0  0  0
    2.8579   -4.8950    0.0000 C   0  0  0  0  0  0  0  0  0  0  0  0
    2.8579   -4.0700    0.0000 C   0  0  0  0  0  0  0  0  0  0  0  0
    2.1434   -3.6575    0.0000 C   0  0  0  0  0  0  0  0  0  0  0  0
    2.1434   -2.8325    0.0000 O   0  0  0  0  0  0  0  0  0  0  0  0
    1.4289   -2.4200    0.0000 C   0  0  0  0  0  0  0  0  0  0  0  0
    1.4289   -1.5950    0.0000 C   0  0  0  0  0  0  0  0  0  0  0  0
    0.7145   -1.1825    0.0000 C   0  0  0  0  0  0  0  0  0  0  0  0
   -0.0000   -1.5950    0.0000 C   0  0  0  0  0  0  0  0  0  0  0  0
   -0.7145   -1.1825    0.0000 N   0  0  0  0  0  0  0  0  0  0  0  0
   -0.0000   -2.4200    0.0000 C   0  0  0  0  0  0  0  0  0  0  0  0
    0.7145   -2.8325    0.0000 C   0  0  0  0  0  0  0  0  0  0  0  0
    1.4289   -4.0700    0.0000 C   0  0  0  0  0  0  0  0  0  0  0  0
    1.4289   -4.8950    0.0000 C   0  0  0  0  0  0  0  0  0  0  0  0
  1  2  1  0  0  0  0
  3  2  1  0  0  0  0
  4  3  2  0  0  0  0
  5  4  1  0  0  0  0
  5  6  1  0  0  0  0
  6  7  1  0  0  0  0
  8  7  1  0  0  0  0
  9  8  2  0  0  0  0
 10  9  1  0  0  0  0
 10 11  1  0  0  0  0
 12 10  2  0  0  0  0
 13 12  1  0  0  0  0
  7 13  2  0  0  0  0
 14  5  2  0  0  0  0
 15 14  1  0  0  0  0
  2 15  2  0  0  0  0
M  END
> <RowID>
260

> <Original_SMILES>
NC1C=CC(=CC=1)OC1C=CC(N)=CC=1

> <Canonical_QSARr>
NC1C=CC(=CC=1)OC1C=CC(N)=CC=1

> <InChI_Code_QSARr>
InChI=1S/C12H12N2O/c13-9-1-5-11(6-2-9)15-12-7-3-10(14)4-8-12/h1-8H,13-14H2

> <InChI Key_QSARr>
HLBLWEWZXPIGSM-UHFFFAOYSA-N

> <Salt_Solvent>


> <Salt_Solvent_ID>
0

> <Number of connected components>
1

$$$$
Molecule_261
  Mrv2316 01072400032D          

 10  9  0  0  0  0            999 V2000
    2.9980    2.5559    0.0000 C   0  0  0  0  0  0  0  0  0  0  0  0
    3.7125    2.1434    0.0000 C   0  0  0  0  0  0  0  0  0  0  0  0
    4.4270    2.5559    0.0000 C   0  0  0  0  0  0  0  0  0  0  0  0
    5.1414    2.1434    0.0000 C   0  0  0  0  0  0  0  0  0  0  0  0
    5.8559    2.5559    0.0000 C   0  0  0  0  0  0  0  0  0  0  0  0
    6.5704    2.1434    0.0000 C   0  0  0  0  0  0  0  0  0  0  0  0
    7.2849    2.5559    0.0000 O   0  0  0  0  0  0  0  0  0  0  0  0
    7.9993    2.1434    0.0000 C   0  0  0  0  0  0  0  0  0  0  0  0
    8.7138    2.5559    0.0000 O   0  0  0  0  0  0  0  0  0  0  0  0
    7.9993    1.3184    0.0000 Cl  0  0  0  0  0  0  0  0  0  0  0  0
  1  2  1  0  0  0  0
  2  3  1  0  0  0  0
  3  4  1  0  0  0  0
  4  5  1  0  0  0  0
  5  6  1  0  0  0  0
  6  7  1  0  0  0  0
  7  8  1  0  0  0  0
  8  9  2  0  0  0  0
  8 10  1  0  0  0  0
M  END
> <RowID>
261

> <Original_SMILES>
CCCCCCOC(=O)Cl

> <Canonical_QSARr>
CCCCCCOC(=O)Cl

> <InChI_Code_QSARr>
InChI=1S/C7H13ClO2/c1-2-3-4-5-6-10-7(8)9/h2-6H2,1H3

> <InChI Key_QSARr>
KIWBRXCOTCXSSZ-UHFFFAOYSA-N

> <Salt_Solvent>


> <Salt_Solvent_ID>
0

> <Number of connected components>
1

$$$$
Molecule_262
  Mrv2316 01072400032D          

 39 44  0  0  0  0            999 V2000
    3.0610    0.2143    0.0000 C   0  0  0  0  0  0  0  0  0  0  0  0
    3.6330    0.8088    0.0000 O   0  0  0  0  0  0  0  0  0  0  0  0
    4.4338    0.6107    0.0000 C   0  0  0  0  0  0  0  0  0  0  0  0
    4.6627   -0.1820    0.0000 C   0  0  0  0  0  0  0  0  0  0  0  0
    5.4635   -0.3801    0.0000 C   0  0  0  0  0  0  0  0  0  0  0  0
    6.0355    0.2143    0.0000 C   0  0  0  0  0  0  0  0  0  0  0  0
    5.8067    1.0070    0.0000 C   0  0  0  0  0  0  0  0  0  0  0  0
    5.0059    1.2051    0.0000 C   0  0  0  0  0  0  0  0  0  0  0  0
    4.7771    1.9978    0.0000 N   0  0  0  0  0  0  0  0  0  0  0  0
    3.9762    2.1959    0.0000 C   0  0  0  0  0  0  0  0  0  0  0  0
    3.7474    2.9886    0.0000 N   0  0  0  0  0  0  0  0  0  0  0  0
    2.9466    3.1867    0.0000 C   0  0  0  0  0  0  0  0  0  0  0  0
    2.7177    3.9794    0.0000 C   0  0  0  0  0  0  0  0  0  0  0  0
    1.9169    4.1775    0.0000 C   0  0  0  0  0  0  0  0  0  0  0  0
    1.3449    3.5830    0.0000 C   0  0  0  0  0  0  0  0  0  0  0  0
    1.5737    2.7904    0.0000 C   0  0  0  0  0  0  0  0  0  0  0  0
    2.3745    2.5922    0.0000 C   0  0  0  0  0  0  0  0  0  0  0  0
    2.6033    1.7996    0.0000 O   0  0  0  0  0  0  0  0  0  0  0  0
    2.0313    1.2051    0.0000 C   0  0  0  0  0  0  0  0  0  0  0  0
    2.2601    0.4125    0.0000 C   0  0  0  0  0  0  0  0  0  0  0  0
    1.4593    0.6107    0.0000 C   0  0  0  0  0  0  0  0  0  0  0  0
    0.8872    0.0162    0.0000 O   0  0  0  0  0  0  0  0  0  0  0  0
    0.0864    0.2143    0.0000 C   0  0  0  0  0  0  0  0  0  0  0  0
   -0.1424    1.0070    0.0000 C   0  0  0  0  0  0  0  0  0  0  0  0
   -0.9433    1.2051    0.0000 C   0  0  0  0  0  0  0  0  0  0  0  0
   -1.5153    0.6107    0.0000 C   0  0  0  0  0  0  0  0  0  0  0  0
   -1.2865   -0.1820    0.0000 C   0  0  0  0  0  0  0  0  0  0  0  0
   -0.4857   -0.3801    0.0000 C   0  0  0  0  0  0  0  0  0  0  0  0
   -0.2568   -1.1728    0.0000 N   0  0  0  0  0  0  0  0  0  0  0  0
    0.5440   -1.3709    0.0000 C   0  0  0  0  0  0  0  0  0  0  0  0
    0.7728   -2.1636    0.0000 N   0  0  0  0  0  0  0  0  0  0  0  0
    1.5737   -2.3617    0.0000 C   0  0  0  0  0  0  0  0  0  0  0  0
    1.8025   -3.1544    0.0000 C   0  0  0  0  0  0  0  0  0  0  0  0
    2.6033   -3.3525    0.0000 C   0  0  0  0  0  0  0  0  0  0  0  0
    3.1754   -2.7580    0.0000 C   0  0  0  0  0  0  0  0  0  0  0  0
    2.9466   -1.9654    0.0000 C   0  0  0  0  0  0  0  0  0  0  0  0
    2.1457   -1.7672    0.0000 C   0  0  0  0  0  0  0  0  0  0  0  0
    1.9169   -0.9746    0.0000 O   0  0  0  0  0  0  0  0  0  0  0  0
    2.4889   -0.3801    0.0000 C   0  0  0  0  0  0  0  0  0  0  0  0
  2  1  1  0  0  0  0
  3  2  1  0  0  0  0
  3  4  2  0  0  0  0
  4  5  1  0  0  0  0
  5  6  2  0  0  0  0
  6  7  1  0  0  0  0
  7  8  2  0  0  0  0
  8  3  1  0  0  0  0
  9  8  1  0  0  0  0
 10  9  2  0  0  0  0
 11 10  2  0  0  0  0
 12 11  1  0  0  0  0
 12 13  2  0  0  0  0
 13 14  1  0  0  0  0
 14 15  2  0  0  0  0
 15 16  1  0  0  0  0
 16 17  2  0  0  0  0
 17 12  1  0  0  0  0
 18 17  1  0  0  0  0
 19 18  1  0  0  0  0
 20 19  1  0  0  0  0
  1 20  1  0  0  0  0
 21 20  1  0  0  0  0
 22 21  1  0  0  0  0
 23 22  1  0  0  0  0
 23 24  2  0  0  0  0
 24 25  1  0  0  0  0
 25 26  2  0  0  0  0
 26 27  1  0  0  0  0
 27 28  2  0  0  0  0
 28 23  1  0  0  0  0
 29 28  1  0  0  0  0
 30 29  2  0  0  0  0
 31 30  2  0  0  0  0
 32 31  1  0  0  0  0
 32 33  2  0  0  0  0
 33 34  1  0  0  0  0
 34 35  2  0  0  0  0
 35 36  1  0  0  0  0
 36 37  2  0  0  0  0
 37 32  1  0  0  0  0
 38 37  1  0  0  0  0
 39 38  1  0  0  0  0
 20 39  1  0  0  0  0
M  END
> <RowID>
262

> <Original_SMILES>
C1OC2=CC=CC=C2N=C=NC2=CC=CC=C2OCC21COC1=CC=CC=C1N=C=NC1=CC=CC=C1OC2

> <Canonical_QSARr>
C1OC2=CC=CC=C2N=C=NC2=CC=CC=C2OCC21COC1=CC=CC=C1N=C=NC1=CC=CC=C1OC2

> <InChI_Code_QSARr>
InChI=1S/C31H24N4O4/c1-5-13-27-23(9-1)32-21-33-24-10-2-6-14-28(24)37-18-31(17-36-27)19-38-29-15-7-3-11-25(29)34-22-35-26-12-4-8-16-30(26)39-20-31/h1-16H,17-20H2

> <InChI Key_QSARr>
TVPTXQIRARTIHV-UHFFFAOYSA-N

> <Salt_Solvent>


> <Salt_Solvent_ID>
0

> <Number of connected components>
1

$$$$
Molecule_263
  Mrv2316 01072400032D          

  7  6  0  0  0  0            999 V2000
    2.0625    0.7145    0.0000 N   0  0  0  0  0  0  0  0  0  0  0  0
    1.2375    0.7145    0.0000 C   0  0  0  0  0  0  0  0  0  0  0  0
    0.8250    1.4289    0.0000 C   0  0  0  0  0  0  0  0  0  0  0  0
    1.2375    2.1434    0.0000 S   0  0  0  0  0  0  0  0  0  0  0  0
    0.8250   -0.0000    0.0000 C   0  0  0  0  0  0  0  0  0  0  0  0
    1.2375   -0.7145    0.0000 O   0  0  0  0  0  0  0  0  0  0  0  0
    0.0000   -0.0000    0.0000 O   0  0  0  0  0  0  0  0  0  0  0  0
  1  2  1  0  0  0  0
  2  3  1  0  0  0  0
  3  4  1  0  0  0  0
  2  5  1  0  0  0  0
  5  6  1  0  0  0  0
  5  7  2  0  0  0  0
M  END
> <RowID>
263

> <Original_SMILES>
NC(CS)C(O)=O

> <Canonical_QSARr>
NC(CS)C(O)=O

> <InChI_Code_QSARr>
InChI=1S/C3H7NO2S/c4-2(1-7)3(5)6/h2,7H,1,4H2,(H,5,6)

> <InChI Key_QSARr>
XUJNEKJLAYXESH-UHFFFAOYSA-N

> <Salt_Solvent>


> <Salt_Solvent_ID>
0

> <Number of connected components>
1

$$$$
Molecule_264
  Mrv2316 01072400032D          

 25 26  0  0  0  0            999 V2000
    2.1434   -5.3625    0.0000 C   0  0  0  0  0  0  0  0  0  0  0  0
    1.4289   -4.9500    0.0000 C   0  0  0  0  0  0  0  0  0  0  0  0
    0.7145   -5.3625    0.0000 O   0  0  0  0  0  0  0  0  0  0  0  0
    1.4289   -4.1250    0.0000 C   0  0  0  0  0  0  0  0  0  0  0  0
    0.7145   -3.7125    0.0000 N   0  0  0  0  0  0  0  0  0  0  0  0
    0.7145   -2.8875    0.0000 N   0  0  0  0  0  0  0  0  0  0  0  0
    0.0000   -2.4750    0.0000 C   0  0  0  0  0  0  0  0  0  0  0  0
    0.0000   -1.6500    0.0000 C   0  0  0  0  0  0  0  0  0  0  0  0
   -0.7145   -1.2375    0.0000 C   0  0  0  0  0  0  0  0  0  0  0  0
   -1.4289   -1.6500    0.0000 C   0  0  0  0  0  0  0  0  0  0  0  0
   -2.1434   -1.2375    0.0000 C   0  0  0  0  0  0  0  0  0  0  0  0
   -1.4289   -2.4750    0.0000 C   0  0  0  0  0  0  0  0  0  0  0  0
   -0.7145   -2.8875    0.0000 C   0  0  0  0  0  0  0  0  0  0  0  0
   -0.7145   -3.7125    0.0000 N   0  3  0  0  0  0  0  0  0  0  0  0
    0.0000   -4.1250    0.0000 O   0  5  0  0  0  0  0  0  0  0  0  0
   -1.4289   -4.1250    0.0000 O   0  0  0  0  0  0  0  0  0  0  0  0
    2.1434   -3.7125    0.0000 C   0  0  0  0  0  0  0  0  0  0  0  0
    2.1434   -2.8875    0.0000 O   0  0  0  0  0  0  0  0  0  0  0  0
    2.8579   -4.1250    0.0000 N   0  0  0  0  0  0  0  0  0  0  0  0
    3.5724   -3.7125    0.0000 C   0  0  0  0  0  0  0  0  0  0  0  0
    4.2868   -4.1250    0.0000 C   0  0  0  0  0  0  0  0  0  0  0  0
    5.0013   -3.7125    0.0000 C   0  0  0  0  0  0  0  0  0  0  0  0
    5.0013   -2.8875    0.0000 C   0  0  0  0  0  0  0  0  0  0  0  0
    4.2868   -2.4750    0.0000 C   0  0  0  0  0  0  0  0  0  0  0  0
    3.5724   -2.8875    0.0000 C   0  0  0  0  0  0  0  0  0  0  0  0
  1  2  1  0  0  0  0
  2  3  2  0  0  0  0
  2  4  1  0  0  0  0
  5  4  1  4  0  0  0
  5  6  2  0  0  0  0
  6  7  1  0  0  0  0
  8  7  2  0  0  0  0
  9  8  1  0  0  0  0
 10  9  2  0  0  0  0
 10 11  1  0  0  0  0
 12 10  1  0  0  0  0
 13 12  2  0  0  0  0
  7 13  1  0  0  0  0
 13 14  1  0  0  0  0
 14 15  1  0  0  0  0
 14 16  2  0  0  0  0
  4 17  1  0  0  0  0
 17 18  2  0  0  0  0
 17 19  1  0  0  0  0
 19 20  1  0  0  0  0
 21 20  1  0  0  0  0
 22 21  2  0  0  0  0
 23 22  1  0  0  0  0
 24 23  2  0  0  0  0
 25 24  1  0  0  0  0
 20 25  2  0  0  0  0
M  CHG  2  14   1  15  -1
M  END
> <RowID>
264

> <Original_SMILES>
CC(=O)C(N=NC1=CC=C(C)C=C1[N+]([O-])=O)C(=O)NC1C=CC=CC=1

> <Canonical_QSARr>
CC(=O)C(N=NC1=CC=C(C)C=C1[N+]([O-])=O)C(=O)NC1C=CC=CC=1

> <InChI_Code_QSARr>
InChI=1S/C17H16N4O4/c1-11-8-9-14(15(10-11)21(24)25)19-20-16(12(2)22)17(23)18-13-6-4-3-5-7-13/h3-10,16H,1-2H3,(H,18,23)

> <InChI Key_QSARr>
MFYSUUPKMDJYPF-UHFFFAOYSA-N

> <Salt_Solvent>


> <Salt_Solvent_ID>
0

> <Number of connected components>
1

$$$$
Molecule_265
  Mrv2316 01072400032D          

 12 11  0  0  0  0            999 V2000
    1.9520   -0.5230    0.0000 C   0  0  0  0  0  0  0  0  0  0  0  0
    1.9520    0.3020    0.0000 C   0  0  0  0  0  0  0  0  0  0  0  0
    2.6664    0.7145    0.0000 C   0  0  0  0  0  0  0  0  0  0  0  0
    1.2375    0.7145    0.0000 Si  0  0  0  0  0  0  0  0  0  0  0  0
    0.5230    1.1270    0.0000 C   0  0  0  0  0  0  0  0  0  0  0  0
    0.5230    1.9520    0.0000 C   0  0  0  0  0  0  0  0  0  0  0  0
   -0.1914    2.3645    0.0000 C   0  0  0  0  0  0  0  0  0  0  0  0
    1.2375    2.3645    0.0000 C   0  0  0  0  0  0  0  0  0  0  0  0
    1.6500    1.4290    0.0000 O   0  0  0  0  0  0  0  0  0  0  0  0
    2.4750    1.4290    0.0000 C   0  0  0  0  0  0  0  0  0  0  0  0
    0.8250    0.0000    0.0000 O   0  0  0  0  0  0  0  0  0  0  0  0
    0.0000    0.0000    0.0000 C   0  0  0  0  0  0  0  0  0  0  0  0
  1  2  1  0  0  0  0
  2  3  1  0  0  0  0
  2  4  1  0  0  0  0
  4  5  1  0  0  0  0
  5  6  1  0  0  0  0
  6  7  1  0  0  0  0
  6  8  1  0  0  0  0
  4  9  1  0  0  0  0
  9 10  1  0  0  0  0
  4 11  1  0  0  0  0
 11 12  1  0  0  0  0
M  END
> <RowID>
265

> <Original_SMILES>
CC(C)[Si](CC(C)C)(OC)OC

> <Canonical_QSARr>
CC(C)[Si](CC(C)C)(OC)OC

> <InChI_Code_QSARr>
InChI=1S/C9H22O2Si/c1-8(2)7-12(10-5,11-6)9(3)4/h8-9H,7H2,1-6H3

> <InChI Key_QSARr>
XFAOZKNGVLIXLC-UHFFFAOYSA-N

> <Salt_Solvent>


> <Salt_Solvent_ID>
0

> <Number of connected components>
1

$$$$
Molecule_266
  Mrv2316 01072400032D          

 14 14  0  0  0  0            999 V2000
    0.7145   -1.6500    0.0000 C   0  0  0  0  0  0  0  0  0  0  0  0
    0.7145   -0.8250    0.0000 C   0  0  0  0  0  0  0  0  0  0  0  0
    1.4289   -0.4125    0.0000 C   0  0  0  0  0  0  0  0  0  0  0  0
    1.4289    0.4125    0.0000 C   0  0  0  0  0  0  0  0  0  0  0  0
    0.7145    0.8250    0.0000 C   0  0  0  0  0  0  0  0  0  0  0  0
    0.7145    1.6500    0.0000 S   0  0  0  0  0  0  0  0  0  0  0  0
    0.7145    2.4750    0.0000 C   0  0  0  0  0  0  0  0  0  0  0  0
    1.5395    1.6500    0.0000 O   0  0  0  0  0  0  0  0  0  0  0  0
   -0.1105    1.6500    0.0000 O   0  0  0  0  0  0  0  0  0  0  0  0
    0.0000    0.4125    0.0000 C   0  0  0  0  0  0  0  0  0  0  0  0
    0.0000   -0.4125    0.0000 C   0  0  0  0  0  0  0  0  0  0  0  0
   -0.7145   -0.8250    0.0000 N   0  3  0  0  0  0  0  0  0  0  0  0
   -0.7145   -1.6500    0.0000 O   0  5  0  0  0  0  0  0  0  0  0  0
   -1.4289   -0.4125    0.0000 O   0  0  0  0  0  0  0  0  0  0  0  0
  1  2  1  0  0  0  0
  3  2  1  0  0  0  0
  4  3  2  0  0  0  0
  5  4  1  0  0  0  0
  5  6  1  0  0  0  0
  6  7  1  0  0  0  0
  6  8  2  0  0  0  0
  6  9  2  0  0  0  0
 10  5  2  0  0  0  0
 11 10  1  0  0  0  0
  2 11  2  0  0  0  0
 11 12  1  0  0  0  0
 12 13  1  0  0  0  0
 12 14  2  0  0  0  0
M  CHG  2  12   1  13  -1
M  END
> <RowID>
266

> <Original_SMILES>
CC1C=CC(=CC=1[N+]([O-])=O)S(C)(=O)=O

> <Canonical_QSARr>
CC1C=CC(=CC=1[N+]([O-])=O)S(C)(=O)=O

> <InChI_Code_QSARr>
InChI=1S/C8H9NO4S/c1-6-3-4-7(14(2,12)13)5-8(6)9(10)11/h3-5H,1-2H3

> <InChI Key_QSARr>
OXBDLEXAVKAJFD-UHFFFAOYSA-N

> <Salt_Solvent>


> <Salt_Solvent_ID>
0

> <Number of connected components>
1

$$$$
Molecule_267
  Mrv2316 01072400032D          

 19 20  0  0  0  0            999 V2000
    1.6922   -2.0191    0.0000 C   0  0  0  0  0  0  0  0  0  0  0  0
    2.4066   -1.6066    0.0000 C   0  0  0  0  0  0  0  0  0  0  0  0
    3.1211   -2.0191    0.0000 C   0  0  0  0  0  0  0  0  0  0  0  0
    3.8356   -1.6066    0.0000 C   0  0  0  0  0  0  0  0  0  0  0  0
    3.8356   -0.7816    0.0000 C   0  0  0  0  0  0  0  0  0  0  0  0
    3.1211   -0.3691    0.0000 C   0  0  0  0  0  0  0  0  0  0  0  0
    3.1211    0.4559    0.0000 C   0  0  0  0  0  0  0  0  0  0  0  0
    2.4066   -0.7816    0.0000 C   0  0  0  0  0  0  0  0  0  0  0  0
    1.6922   -0.3691    0.0000 O   0  0  0  0  0  0  0  0  0  0  0  0
    0.9777   -0.7816    0.0000 S   0  0  0  0  0  0  0  0  0  0  0  0
    0.5652   -0.0671    0.0000 O   0  0  0  0  0  0  0  0  0  0  0  0
    1.3902   -1.4960    0.0000 O   0  0  0  0  0  0  0  0  0  0  0  0
    0.2632   -1.1941    0.0000 C   0  0  0  0  0  0  0  0  0  0  0  0
   -0.4512   -0.7816    0.0000 C   0  0  0  0  0  0  0  0  0  0  0  0
   -1.1657   -1.1941    0.0000 C   0  0  0  0  0  0  0  0  0  0  0  0
   -1.1657   -2.0191    0.0000 C   0  0  0  0  0  0  0  0  0  0  0  0
   -1.8802   -2.4316    0.0000 O   0  0  0  0  0  0  0  0  0  0  0  0
   -0.4512   -2.4316    0.0000 C   0  0  0  0  0  0  0  0  0  0  0  0
    0.2632   -2.0191    0.0000 C   0  0  0  0  0  0  0  0  0  0  0  0
  1  2  1  0  0  0  0
  3  2  1  0  0  0  0
  4  3  2  0  0  0  0
  5  4  1  0  0  0  0
  6  5  2  0  0  0  0
  6  7  1  0  0  0  0
  8  6  1  0  0  0  0
  2  8  2  0  0  0  0
  8  9  1  0  0  0  0
  9 10  1  0  0  0  0
 10 11  2  0  0  0  0
 10 12  2  0  0  0  0
 10 13  1  0  0  0  0
 14 13  1  0  0  0  0
 15 14  2  0  0  0  0
 16 15  1  0  0  0  0
 16 17  1  0  0  0  0
 18 16  2  0  0  0  0
 19 18  1  0  0  0  0
 13 19  2  0  0  0  0
M  END
> <RowID>
267

> <Original_SMILES>
CC1C=CC=C(C)C=1OS(=O)(=O)C1C=CC(O)=CC=1

> <Canonical_QSARr>
CC1C=CC=C(C)C=1OS(=O)(=O)C1C=CC(O)=CC=1

> <InChI_Code_QSARr>
InChI=1S/C14H14O4S/c1-10-4-3-5-11(2)14(10)18-19(16,17)13-8-6-12(15)7-9-13/h3-9,15H,1-2H3

> <InChI Key_QSARr>
AGNCPLAEUFOQPN-UHFFFAOYSA-N

> <Salt_Solvent>


> <Salt_Solvent_ID>
0

> <Number of connected components>
1

$$$$
Molecule_268
  Mrv2316 01072400032D          

  7  6  0  0  0  0            999 V2000
   -0.1914    0.7145    0.0000 C   0  0  0  0  0  0  0  0  0  0  0  0
    0.5230    1.1270    0.0000 C   0  0  0  0  0  0  0  0  0  0  0  0
    1.2375    0.7145    0.0000 C   0  0  0  0  0  0  0  0  0  0  0  0
    1.2375   -0.1105    0.0000 O   0  0  0  0  0  0  0  0  0  0  0  0
    1.9520    1.1270    0.0000 N   0  0  0  0  0  0  0  0  0  0  0  0
    2.6664    0.7145    0.0000 C   0  0  0  0  0  0  0  0  0  0  0  0
    3.3809    1.1270    0.0000 O   0  0  0  0  0  0  0  0  0  0  0  0
  1  2  2  0  0  0  0
  2  3  1  0  0  0  0
  3  4  2  0  0  0  0
  3  5  1  0  0  0  0
  5  6  1  0  0  0  0
  6  7  1  0  0  0  0
M  END
> <RowID>
268

> <Original_SMILES>
C=CC(=O)NCO

> <Canonical_QSARr>
C=CC(=O)NCO

> <InChI_Code_QSARr>
InChI=1S/C4H7NO2/c1-2-4(7)5-3-6/h2,6H,1,3H2,(H,5,7)

> <InChI Key_QSARr>
CNCOEDDPFOAUMB-UHFFFAOYSA-N

> <Salt_Solvent>


> <Salt_Solvent_ID>
0

> <Number of connected components>
1

$$$$
Molecule_269
  Mrv2316 01072400032D          

 12 13  0  0  0  0            999 V2000
   -0.0000   -1.6500    0.0000 C   0  0  0  0  0  0  0  0  0  0  0  0
   -0.0000   -2.4750    0.0000 C   0  0  0  0  0  0  0  0  0  0  0  0
    0.7145   -2.8875    0.0000 C   0  0  0  0  0  0  0  0  0  0  0  0
    1.4289   -2.4750    0.0000 C   0  0  0  0  0  0  0  0  0  0  0  0
    1.4289   -1.6500    0.0000 C   0  0  0  0  0  0  0  0  0  0  0  0
    0.7145   -1.2375    0.0000 C   0  0  0  0  0  0  0  0  0  0  0  0
    0.7145   -0.4125    0.0000 C   0  0  0  0  0  0  0  0  0  0  0  0
    1.4289    0.0000    0.0000 C   0  0  0  0  0  0  0  0  0  0  0  0
    1.4289    0.8250    0.0000 C   0  0  0  0  0  0  0  0  0  0  0  0
    0.7145    1.2375    0.0000 C   0  0  0  0  0  0  0  0  0  0  0  0
   -0.0000    0.8250    0.0000 C   0  0  0  0  0  0  0  0  0  0  0  0
   -0.0000   -0.0000    0.0000 C   0  0  0  0  0  0  0  0  0  0  0  0
  2  1  1  0  0  0  0
  3  2  1  0  0  0  0
  4  3  1  0  0  0  0
  5  4  1  0  0  0  0
  6  5  1  0  0  0  0
  1  6  1  0  0  0  0
  6  7  1  0  0  0  0
  8  7  1  0  0  0  0
  9  8  2  0  0  0  0
 10  9  1  0  0  0  0
 11 10  2  0  0  0  0
 12 11  1  0  0  0  0
  7 12  2  0  0  0  0
M  END
> <RowID>
269

> <Original_SMILES>
C1CCCCC1C1C=CC=CC=1

> <Canonical_QSARr>
C1CCCCC1C1C=CC=CC=1

> <InChI_Code_QSARr>
InChI=1S/C12H16/c1-3-7-11(8-4-1)12-9-5-2-6-10-12/h1,3-4,7-8,12H,2,5-6,9-10H2

> <InChI Key_QSARr>
IGARGHRYKHJQSM-UHFFFAOYSA-N

> <Salt_Solvent>


> <Salt_Solvent_ID>
0

> <Number of connected components>
1

$$$$
Molecule_270
  Mrv2316 01072400032D          

 28 29  0  0  0  0            999 V2000
    0.5303   -2.2820    0.0000 F   0  0  0  0  0  0  0  0  0  0  0  0
   -0.0000   -1.6500    0.0000 C   0  0  0  0  0  0  0  0  0  0  0  0
   -0.5303   -2.2820    0.0000 F   0  0  0  0  0  0  0  0  0  0  0  0
    0.7145   -1.2375    0.0000 C   0  0  0  0  0  0  0  0  0  0  0  0
    0.7145   -2.0625    0.0000 F   0  0  0  0  0  0  0  0  0  0  0  0
    0.7145   -0.4125    0.0000 C   0  0  0  0  0  0  0  0  0  0  0  0
    0.7145    0.4125    0.0000 F   0  0  0  0  0  0  0  0  0  0  0  0
    1.4289    0.0000    0.0000 C   0  0  0  0  0  0  0  0  0  0  0  0
    0.8986    0.6320    0.0000 F   0  0  0  0  0  0  0  0  0  0  0  0
    1.9592    0.6320    0.0000 F   0  0  0  0  0  0  0  0  0  0  0  0
    2.1434   -0.4125    0.0000 C   0  0  0  0  0  0  0  0  0  0  0  0
    2.4256    0.3627    0.0000 F   0  0  0  0  0  0  0  0  0  0  0  0
    2.9559   -0.5558    0.0000 F   0  0  0  0  0  0  0  0  0  0  0  0
    2.1434   -1.2375    0.0000 C   0  0  0  0  0  0  0  0  0  0  0  0
    2.4256   -2.0127    0.0000 F   0  0  0  0  0  0  0  0  0  0  0  0
    2.9559   -1.0942    0.0000 F   0  0  0  0  0  0  0  0  0  0  0  0
    1.4289   -1.6500    0.0000 C   0  0  0  0  0  0  0  0  0  0  0  0
    1.0416   -2.3784    0.0000 F   0  0  0  0  0  0  0  0  0  0  0  0
    1.8163   -2.3784    0.0000 F   0  0  0  0  0  0  0  0  0  0  0  0
   -0.0000    0.0000    0.0000 C   0  0  0  0  0  0  0  0  0  0  0  0
    0.5303    0.6320    0.0000 F   0  0  0  0  0  0  0  0  0  0  0  0
   -0.5303    0.6320    0.0000 F   0  0  0  0  0  0  0  0  0  0  0  0
   -0.7145   -0.4125    0.0000 C   0  0  0  0  0  0  0  0  0  0  0  0
   -0.9966    0.3627    0.0000 F   0  0  0  0  0  0  0  0  0  0  0  0
   -1.5269   -0.5558    0.0000 F   0  0  0  0  0  0  0  0  0  0  0  0
   -0.7145   -1.2375    0.0000 C   0  0  0  0  0  0  0  0  0  0  0  0
   -1.5390   -1.2663    0.0000 F   0  0  0  0  0  0  0  0  0  0  0  0
   -1.1517   -1.9371    0.0000 F   0  0  0  0  0  0  0  0  0  0  0  0
  1  2  1  0  0  0  0
  2  3  1  0  0  0  0
  4  2  1  0  0  0  0
  4  5  1  0  0  0  0
  4  6  1  0  0  0  0
  6  7  1  0  0  0  0
  6  8  1  0  0  0  0
  8  9  1  0  0  0  0
  8 10  1  0  0  0  0
  8 11  1  0  0  0  0
 11 12  1  0  0  0  0
 11 13  1  0  0  0  0
 11 14  1  0  0  0  0
 14 15  1  0  0  0  0
 14 16  1  0  0  0  0
 14 17  1  0  0  0  0
 17  4  1  0  0  0  0
 17 18  1  0  0  0  0
 17 19  1  0  0  0  0
 20  6  1  0  0  0  0
 20 21  1  0  0  0  0
 20 22  1  0  0  0  0
 23 20  1  0  0  0  0
 23 24  1  0  0  0  0
 23 25  1  0  0  0  0
 26 23  1  0  0  0  0
  2 26  1  0  0  0  0
 26 27  1  0  0  0  0
 26 28  1  0  0  0  0
M  END
> <RowID>
270

> <Original_SMILES>
FC1(F)C2(F)C(F)(C(F)(F)C(F)(F)C1(F)F)C(F)(F)C(F)(F)C(F)(F)C2(F)F

> <Canonical_QSARr>
FC1(F)C2(F)C(F)(C(F)(F)C(F)(F)C1(F)F)C(F)(F)C(F)(F)C(F)(F)C2(F)F

> <InChI_Code_QSARr>
InChI=1S/C10F18/c11-1-2(12,5(17,18)9(25,26)7(21,22)3(1,13)14)6(19,20)10(27,28)8(23,24)4(1,15)16

> <InChI Key_QSARr>
UWEYRJFJVCLAGH-UHFFFAOYSA-N

> <Salt_Solvent>


> <Salt_Solvent_ID>
0

> <Number of connected components>
1

$$$$
Molecule_271
  Mrv2316 01072400032D          

 15 14  0  0  0  0            999 V2000
    4.7586    3.5724    0.0000 C   0  0  0  0  0  0  0  0  0  0  0  0
    5.4730    3.9849    0.0000 C   0  0  0  0  0  0  0  0  0  0  0  0
    6.1875    3.5724    0.0000 C   0  0  0  0  0  0  0  0  0  0  0  0
    6.9020    3.9849    0.0000 C   0  0  0  0  0  0  0  0  0  0  0  0
    7.6164    3.5724    0.0000 C   0  0  0  0  0  0  0  0  0  0  0  0
    8.3309    3.9849    0.0000 C   0  0  0  0  0  0  0  0  0  0  0  0
    9.0454    3.5724    0.0000 C   0  0  0  0  0  0  0  0  0  0  0  0
    9.7599    3.9849    0.0000 C   0  0  0  0  0  0  0  0  0  0  0  0
   10.4743    3.5724    0.0000 C   0  0  0  0  0  0  0  0  0  0  0  0
   11.1888    3.9849    0.0000 C   0  0  0  0  0  0  0  0  0  0  0  0
   11.9033    3.5724    0.0000 C   0  0  0  0  0  0  0  0  0  0  0  0
   12.6177    3.9849    0.0000 C   0  0  0  0  0  0  0  0  0  0  0  0
   13.3322    3.5724    0.0000 N   0  0  0  0  0  0  0  0  0  0  0  0
   14.0467    3.9849    0.0000 C   0  0  0  0  0  0  0  0  0  0  0  0
   13.3322    2.7474    0.0000 C   0  0  0  0  0  0  0  0  0  0  0  0
  1  2  1  0  0  0  0
  2  3  1  0  0  0  0
  3  4  1  0  0  0  0
  4  5  1  0  0  0  0
  5  6  1  0  0  0  0
  6  7  1  0  0  0  0
  7  8  1  0  0  0  0
  8  9  1  0  0  0  0
  9 10  1  0  0  0  0
 10 11  1  0  0  0  0
 11 12  1  0  0  0  0
 12 13  1  0  0  0  0
 13 14  1  0  0  0  0
 13 15  1  0  0  0  0
M  END
> <RowID>
271

> <Original_SMILES>
CCCCCCCCCCCCN(C)C

> <Canonical_QSARr>
CCCCCCCCCCCCN(C)C

> <InChI_Code_QSARr>
InChI=1S/C14H31N/c1-4-5-6-7-8-9-10-11-12-13-14-15(2)3/h4-14H2,1-3H3

> <InChI Key_QSARr>
YWFWDNVOPHGWMX-UHFFFAOYSA-N

> <Salt_Solvent>


> <Salt_Solvent_ID>
0

> <Number of connected components>
1

$$$$
Molecule_272
  Mrv2316 01072400032D          

  7  7  0  0  0  0            999 V2000
   -0.3296   -0.8227    0.0000 C   0  0  0  0  0  0  0  0  0  0  0  0
    0.1553   -0.1553    0.0000 C   0  0  0  0  0  0  0  0  0  0  0  0
    0.9803   -0.1553    0.0000 C   0  0  0  0  0  0  0  0  0  0  0  0
    1.2352    0.6294    0.0000 O   0  0  0  0  0  0  0  0  0  0  0  0
    0.5678    1.1143    0.0000 C   0  0  0  0  0  0  0  0  0  0  0  0
    0.5678    1.9393    0.0000 O   0  0  0  0  0  0  0  0  0  0  0  0
   -0.0997    0.6294    0.0000 O   0  0  0  0  0  0  0  0  0  0  0  0
  1  2  1  0  0  0  0
  3  2  1  0  0  0  0
  4  3  1  0  0  0  0
  5  4  1  0  0  0  0
  5  6  2  0  0  0  0
  7  5  1  0  0  0  0
  2  7  1  0  0  0  0
M  END
> <RowID>
272

> <Original_SMILES>
CC1COC(=O)O1

> <Canonical_QSARr>
CC1COC(=O)O1

> <InChI_Code_QSARr>
InChI=1S/C4H6O3/c1-3-2-6-4(5)7-3/h3H,2H2,1H3

> <InChI Key_QSARr>
RUOJZAUFBMNUDX-UHFFFAOYSA-N

> <Salt_Solvent>


> <Salt_Solvent_ID>
0

> <Number of connected components>
1

$$$$
Molecule_274
  Mrv2316 01072400032D          

  5  4  0  0  0  0            999 V2000
    1.2375    0.7145    0.0000 C   0  0  0  0  0  0  0  0  0  0  0  0
    0.8250    0.0000    0.0000 C   0  0  0  0  0  0  0  0  0  0  0  0
   -0.0000    0.0000    0.0000 C   0  0  0  0  0  0  0  0  0  0  0  0
   -0.4125   -0.7145    0.0000 O   0  0  0  0  0  0  0  0  0  0  0  0
    0.0000   -1.4289    0.0000 C   0  0  0  0  0  0  0  0  0  0  0  0
  2  1  1  4  0  0  0
  2  3  2  0  0  0  0
  3  4  1  0  0  0  0
  4  5  1  0  0  0  0
M  END
> <RowID>
274

> <Original_SMILES>
CC=COC

> <Canonical_QSARr>
CC=COC

> <InChI_Code_QSARr>
InChI=1S/C4H8O/c1-3-4-5-2/h3-4H,1-2H3

> <InChI Key_QSARr>
QHMVQKOXILNZQR-UHFFFAOYSA-N

> <Salt_Solvent>


> <Salt_Solvent_ID>
0

> <Number of connected components>
1

$$$$
Molecule_275
  Mrv2316 01072400032D          

 38 37  0  0  0  0            999 V2000
    5.6117   10.6652    0.0000 C   0  0  0  0  0  0  0  0  0  0  0  0
    5.6117    9.8402    0.0000 C   0  0  0  0  0  0  0  0  0  0  0  0
    6.3262    9.4277    0.0000 C   0  0  0  0  0  0  0  0  0  0  0  0
    6.3262    8.6027    0.0000 C   0  0  0  0  0  0  0  0  0  0  0  0
    7.0407    8.1902    0.0000 C   0  0  0  0  0  0  0  0  0  0  0  0
    7.0407    7.3652    0.0000 C   0  0  0  0  0  0  0  0  0  0  0  0
    7.7552    6.9527    0.0000 C   0  0  0  0  0  0  0  0  0  0  0  0
    8.4696    7.3652    0.0000 C   0  0  0  0  0  0  0  0  0  0  0  0
    9.1841    6.9527    0.0000 C   0  0  0  0  0  0  0  0  0  0  0  0
    9.1841    6.1277    0.0000 C   0  0  0  0  0  0  0  0  0  0  0  0
    9.8986    5.7152    0.0000 C   0  0  0  0  0  0  0  0  0  0  0  0
   10.6130    6.1277    0.0000 C   0  0  0  0  0  0  0  0  0  0  0  0
   11.3275    5.7152    0.0000 C   0  0  0  0  0  0  0  0  0  0  0  0
   12.0420    6.1277    0.0000 C   0  0  0  0  0  0  0  0  0  0  0  0
   12.7565    5.7152    0.0000 C   0  0  0  0  0  0  0  0  0  0  0  0
   13.4709    6.1277    0.0000 C   0  0  0  0  0  0  0  0  0  0  0  0
   14.1854    5.7152    0.0000 C   0  0  0  0  0  0  0  0  0  0  0  0
   14.8999    6.1277    0.0000 C   0  0  0  0  0  0  0  0  0  0  0  0
   14.8999    6.9527    0.0000 O   0  0  0  0  0  0  0  0  0  0  0  0
   15.6143    5.7152    0.0000 N   0  0  0  0  0  0  0  0  0  0  0  0
   16.3288    6.1277    0.0000 C   0  0  0  0  0  0  0  0  0  0  0  0
   17.0433    5.7152    0.0000 C   0  0  0  0  0  0  0  0  0  0  0  0
   17.7578    6.1277    0.0000 C   0  0  0  0  0  0  0  0  0  0  0  0
   18.4722    5.7152    0.0000 C   0  0  0  0  0  0  0  0  0  0  0  0
   19.1867    6.1277    0.0000 C   0  0  0  0  0  0  0  0  0  0  0  0
   19.9012    5.7152    0.0000 C   0  0  0  0  0  0  0  0  0  0  0  0
   20.6156    6.1277    0.0000 C   0  0  0  0  0  0  0  0  0  0  0  0
   21.3301    5.7152    0.0000 C   0  0  0  0  0  0  0  0  0  0  0  0
   22.0446    6.1277    0.0000 C   0  0  0  0  0  0  0  0  0  0  0  0
   22.7590    5.7152    0.0000 C   0  0  0  0  0  0  0  0  0  0  0  0
   23.4735    6.1277    0.0000 C   0  0  0  0  0  0  0  0  0  0  0  0
   24.1880    5.7152    0.0000 C   0  0  0  0  0  0  0  0  0  0  0  0
   24.1880    4.8902    0.0000 C   0  0  0  0  0  0  0  0  0  0  0  0
   24.9025    4.4777    0.0000 C   0  0  0  0  0  0  0  0  0  0  0  0
   24.9025    3.6527    0.0000 C   0  0  0  0  0  0  0  0  0  0  0  0
   25.6169    3.2402    0.0000 C   0  0  0  0  0  0  0  0  0  0  0  0
   25.6169    2.4152    0.0000 C   0  0  0  0  0  0  0  0  0  0  0  0
   26.3314    2.0027    0.0000 C   0  0  0  0  0  0  0  0  0  0  0  0
  1  2  1  0  0  0  0
  2  3  1  0  0  0  0
  3  4  1  0  0  0  0
  4  5  1  0  0  0  0
  5  6  1  0  0  0  0
  6  7  1  0  0  0  0
  7  8  1  0  0  0  0
  9  8  1  4  0  0  0
  9 10  2  0  0  0  0
 10 11  1  0  0  0  0
 11 12  1  0  0  0  0
 12 13  1  0  0  0  0
 13 14  1  0  0  0  0
 14 15  1  0  0  0  0
 15 16  1  0  0  0  0
 16 17  1  0  0  0  0
 17 18  1  0  0  0  0
 18 19  2  0  0  0  0
 18 20  1  0  0  0  0
 20 21  1  0  0  0  0
 21 22  1  0  0  0  0
 22 23  1  0  0  0  0
 23 24  1  0  0  0  0
 24 25  1  0  0  0  0
 25 26  1  0  0  0  0
 26 27  1  0  0  0  0
 27 28  1  0  0  0  0
 29 28  1  4  0  0  0
 29 30  2  0  0  0  0
 30 31  1  0  0  0  0
 31 32  1  0  0  0  0
 32 33  1  0  0  0  0
 33 34  1  0  0  0  0
 34 35  1  0  0  0  0
 35 36  1  0  0  0  0
 36 37  1  0  0  0  0
 37 38  1  0  0  0  0
M  END
> <RowID>
275

> <Original_SMILES>
CCCCCCCCC=CCCCCCCCC(=O)NCCCCCCCCC=CCCCCCCCC

> <Canonical_QSARr>
CCCCCCCCC=CCCCCCCCC(=O)NCCCCCCCCC=CCCCCCCCC

> <InChI_Code_QSARr>
InChI=1S/C36H69NO/c1-3-5-7-9-11-13-15-17-19-21-23-25-27-29-31-33-35-37-36(38)34-32-30-28-26-24-22-20-18-16-14-12-10-8-6-4-2/h17-20H,3-16,21-35H2,1-2H3,(H,37,38)

> <InChI Key_QSARr>
GCAONVVVMAVFDE-UHFFFAOYSA-N

> <Salt_Solvent>


> <Salt_Solvent_ID>
0

> <Number of connected components>
1

$$$$
Molecule_276
  Mrv2316 01072400032D          

 45 44  0  0  0  0            999 V2000
    6.1066    4.6993    0.0000 C   0  0  0  0  0  0  0  0  0  0  0  0
    6.5191    5.4138    0.0000 C   0  0  0  0  0  0  0  0  0  0  0  0
    6.9316    6.1283    0.0000 C   0  0  0  0  0  0  0  0  0  0  0  0
    5.8046    5.8263    0.0000 C   0  0  0  0  0  0  0  0  0  0  0  0
    5.0901    5.4138    0.0000 O   0  0  0  0  0  0  0  0  0  0  0  0
    4.3757    5.8263    0.0000 C   0  0  0  0  0  0  0  0  0  0  0  0
    4.3757    6.6513    0.0000 O   0  0  0  0  0  0  0  0  0  0  0  0
    3.6612    5.4138    0.0000 C   0  0  0  0  0  0  0  0  0  0  0  0
    2.9467    5.8263    0.0000 C   0  0  0  0  0  0  0  0  0  0  0  0
    2.2323    5.4138    0.0000 C   0  0  0  0  0  0  0  0  0  0  0  0
    1.5178    5.8263    0.0000 C   0  0  0  0  0  0  0  0  0  0  0  0
    0.8033    5.4138    0.0000 C   0  0  0  0  0  0  0  0  0  0  0  0
    0.0888    5.8263    0.0000 C   0  0  0  0  0  0  0  0  0  0  0  0
   -0.6256    5.4138    0.0000 C   0  0  0  0  0  0  0  0  0  0  0  0
   -1.3401    5.8263    0.0000 C   0  0  0  0  0  0  0  0  0  0  0  0
   -2.0546    5.4138    0.0000 C   0  0  0  0  0  0  0  0  0  0  0  0
   -2.7690    5.8263    0.0000 C   0  0  0  0  0  0  0  0  0  0  0  0
   -2.7690    6.6513    0.0000 C   0  0  0  0  0  0  0  0  0  0  0  0
   -3.4835    5.4138    0.0000 C   0  0  0  0  0  0  0  0  0  0  0  0
   -4.1980    5.8263    0.0000 C   0  0  0  0  0  0  0  0  0  0  0  0
   -4.9124    5.4138    0.0000 C   0  0  0  0  0  0  0  0  0  0  0  0
   -5.6269    5.8263    0.0000 C   0  0  0  0  0  0  0  0  0  0  0  0
   -6.3414    5.4138    0.0000 C   0  0  0  0  0  0  0  0  0  0  0  0
   -5.6269    6.6513    0.0000 C   0  0  0  0  0  0  0  0  0  0  0  0
    7.2336    5.0013    0.0000 C   0  0  0  0  0  0  0  0  0  0  0  0
    7.9480    5.4138    0.0000 O   0  0  0  0  0  0  0  0  0  0  0  0
    8.6625    5.0013    0.0000 C   0  0  0  0  0  0  0  0  0  0  0  0
    8.6625    4.1763    0.0000 O   0  0  0  0  0  0  0  0  0  0  0  0
    9.3770    5.4138    0.0000 C   0  0  0  0  0  0  0  0  0  0  0  0
   10.0914    5.0013    0.0000 C   0  0  0  0  0  0  0  0  0  0  0  0
   10.8059    5.4138    0.0000 C   0  0  0  0  0  0  0  0  0  0  0  0
   11.5204    5.0013    0.0000 C   0  0  0  0  0  0  0  0  0  0  0  0
   12.2349    5.4138    0.0000 C   0  0  0  0  0  0  0  0  0  0  0  0
   12.9493    5.0013    0.0000 C   0  0  0  0  0  0  0  0  0  0  0  0
   13.6638    5.4138    0.0000 C   0  0  0  0  0  0  0  0  0  0  0  0
   14.3783    5.0013    0.0000 C   0  0  0  0  0  0  0  0  0  0  0  0
   15.0927    5.4138    0.0000 C   0  0  0  0  0  0  0  0  0  0  0  0
   15.8072    5.0013    0.0000 C   0  0  0  0  0  0  0  0  0  0  0  0
   15.8072    4.1763    0.0000 C   0  0  0  0  0  0  0  0  0  0  0  0
   16.5217    5.4138    0.0000 C   0  0  0  0  0  0  0  0  0  0  0  0
   17.2362    5.0013    0.0000 C   0  0  0  0  0  0  0  0  0  0  0  0
   17.9506    5.4138    0.0000 C   0  0  0  0  0  0  0  0  0  0  0  0
   18.6651    5.0013    0.0000 C   0  0  0  0  0  0  0  0  0  0  0  0
   19.3796    5.4138    0.0000 C   0  0  0  0  0  0  0  0  0  0  0  0
   18.6651    4.1763    0.0000 C   0  0  0  0  0  0  0  0  0  0  0  0
  1  2  1  0  0  0  0
  2  3  1  0  0  0  0
  2  4  1  0  0  0  0
  4  5  1  0  0  0  0
  5  6  1  0  0  0  0
  6  7  2  0  0  0  0
  6  8  1  0  0  0  0
  8  9  1  0  0  0  0
  9 10  1  0  0  0  0
 10 11  1  0  0  0  0
 11 12  1  0  0  0  0
 12 13  1  0  0  0  0
 13 14  1  0  0  0  0
 14 15  1  0  0  0  0
 15 16  1  0  0  0  0
 16 17  1  0  0  0  0
 17 18  1  0  0  0  0
 17 19  1  0  0  0  0
 19 20  1  0  0  0  0
 20 21  1  0  0  0  0
 21 22  1  0  0  0  0
 22 23  1  0  0  0  0
 22 24  1  0  0  0  0
  2 25  1  0  0  0  0
 25 26  1  0  0  0  0
 26 27  1  0  0  0  0
 27 28  2  0  0  0  0
 27 29  1  0  0  0  0
 29 30  1  0  0  0  0
 30 31  1  0  0  0  0
 31 32  1  0  0  0  0
 32 33  1  0  0  0  0
 33 34  1  0  0  0  0
 34 35  1  0  0  0  0
 35 36  1  0  0  0  0
 36 37  1  0  0  0  0
 37 38  1  0  0  0  0
 38 39  1  0  0  0  0
 38 40  1  0  0  0  0
 40 41  1  0  0  0  0
 41 42  1  0  0  0  0
 42 43  1  0  0  0  0
 43 44  1  0  0  0  0
 43 45  1  0  0  0  0
M  END
> <RowID>
276

> <Original_SMILES>
CC(C)(COC(=O)CCCCCCCCCC(C)CCCC(C)C)COC(=O)CCCCCCCCCC(C)CCCC(C)C

> <Canonical_QSARr>
CC(C)(COC(=O)CCCCCCCCCC(C)CCCC(C)C)COC(=O)CCCCCCCCCC(C)CCCC(C)C

> <InChI_Code_QSARr>
InChI=1S/C41H80O4/c1-35(2)25-23-29-37(5)27-19-15-11-9-13-17-21-31-39(42)44-33-41(7,8)34-45-40(43)32-22-18-14-10-12-16-20-28-38(6)30-24-26-36(3)4/h35-38H,9-34H2,1-8H3

> <InChI Key_QSARr>
IPEFYHDRBHOTTP-UHFFFAOYSA-N

> <Salt_Solvent>


> <Salt_Solvent_ID>
0

> <Number of connected components>
1

$$$$
Molecule_277
  Mrv2316 01072400032D          

  8  8  0  0  0  0            999 V2000
    0.9250    3.1768    0.0000 Br  0  0  0  0  0  0  0  0  0  0  0  0
    0.9250    2.3518    0.0000 C   0  0  0  0  0  0  0  0  0  0  0  0
    0.2105    1.9393    0.0000 C   0  0  0  0  0  0  0  0  0  0  0  0
    0.2105    1.1143    0.0000 C   0  0  0  0  0  0  0  0  0  0  0  0
   -0.4569    0.6294    0.0000 O   0  0  0  0  0  0  0  0  0  0  0  0
   -0.2020   -0.1553    0.0000 C   0  0  0  0  0  0  0  0  0  0  0  0
    0.6230   -0.1553    0.0000 C   0  0  0  0  0  0  0  0  0  0  0  0
    0.8780    0.6294    0.0000 O   0  0  0  0  0  0  0  0  0  0  0  0
  1  2  1  0  0  0  0
  2  3  1  0  0  0  0
  3  4  1  0  0  0  0
  5  4  1  0  0  0  0
  6  5  1  0  0  0  0
  7  6  1  0  0  0  0
  8  7  1  0  0  0  0
  4  8  1  0  0  0  0
M  END
> <RowID>
277

> <Original_SMILES>
BrCCC1OCCO1

> <Canonical_QSARr>
BrCCC1OCCO1

> <InChI_Code_QSARr>
InChI=1S/C5H9BrO2/c6-2-1-5-7-3-4-8-5/h5H,1-4H2

> <InChI Key_QSARr>
GGZQLTVZPOGLCC-UHFFFAOYSA-N

> <Salt_Solvent>


> <Salt_Solvent_ID>
0

> <Number of connected components>
1

$$$$
Molecule_278
  Mrv2316 01072400032D          

 11 11  0  0  0  0            999 V2000
    0.4547   -1.9875    0.0000 C   0  0  0  0  0  0  0  0  0  0  0  0
    0.4547   -1.1625    0.0000 C   0  0  0  0  0  0  0  0  0  0  0  0
    1.1691   -0.7500    0.0000 C   0  0  0  0  0  0  0  0  0  0  0  0
    1.1691    0.0750    0.0000 C   0  0  0  0  0  0  0  0  0  0  0  0
    0.4547    0.4875    0.0000 C   0  0  0  0  0  0  0  0  0  0  0  0
    0.4547    1.3125    0.0000 C   0  0  0  0  0  0  0  0  0  0  0  0
    1.1691    1.7250    0.0000 C   0  0  0  0  0  0  0  0  0  0  0  0
    1.1691    2.5500    0.0000 C   0  0  0  0  0  0  0  0  0  0  0  0
   -0.2598    0.0750    0.0000 C   0  0  0  0  0  0  0  0  0  0  0  0
   -0.2598   -0.7500    0.0000 C   0  0  0  0  0  0  0  0  0  0  0  0
   -0.9743   -1.1625    0.0000 O   0  0  0  0  0  0  0  0  0  0  0  0
  1  2  1  0  0  0  0
  3  2  2  0  0  0  0
  4  3  1  0  0  0  0
  5  4  1  0  0  0  0
  5  6  1  0  0  0  0
  6  7  1  0  0  0  0
  7  8  1  0  0  0  0
  9  5  1  0  0  0  0
 10  9  1  0  0  0  0
  2 10  1  0  0  0  0
 10 11  2  0  0  0  0
M  END
> <RowID>
278

> <Original_SMILES>
CC1=CCC(CCC)CC1=O

> <Canonical_QSARr>
CC1=CCC(CCC)CC1=O

> <InChI_Code_QSARr>
InChI=1S/C10H16O/c1-3-4-9-6-5-8(2)10(11)7-9/h5,9H,3-4,6-7H2,1-2H3

> <InChI Key_QSARr>
PGOHXVFJIXDZAH-UHFFFAOYSA-N

> <Salt_Solvent>


> <Salt_Solvent_ID>
0

> <Number of connected components>
1

$$$$
Molecule_279
  Mrv2316 01072400032D          

 35 34  0  0  0  0            999 V2000
    2.9980   -2.5559    0.0000 C   0  0  0  0  0  0  0  0  0  0  0  0
    3.7125   -2.1434    0.0000 C   0  0  0  0  0  0  0  0  0  0  0  0
    3.7125   -1.3184    0.0000 C   0  0  0  0  0  0  0  0  0  0  0  0
    4.4270   -2.5559    0.0000 C   0  0  0  0  0  0  0  0  0  0  0  0
    4.4270   -3.3809    0.0000 O   0  0  0  0  0  0  0  0  0  0  0  0
    5.1414   -2.1434    0.0000 O   0  0  0  0  0  0  0  0  0  0  0  0
    5.8559   -2.5559    0.0000 C   0  0  0  0  0  0  0  0  0  0  0  0
    6.5704   -2.1434    0.0000 C   0  0  0  0  0  0  0  0  0  0  0  0
    7.2848   -2.5559    0.0000 O   0  0  0  0  0  0  0  0  0  0  0  0
    7.9993   -2.1434    0.0000 C   0  0  0  0  0  0  0  0  0  0  0  0
    8.7138   -2.5559    0.0000 C   0  0  0  0  0  0  0  0  0  0  0  0
    9.4283   -2.1434    0.0000 C   0  0  0  0  0  0  0  0  0  0  0  0
   10.1427   -2.5559    0.0000 Si  0  0  0  0  0  0  0  0  0  0  0  0
    9.7302   -3.2704    0.0000 C   0  0  0  0  0  0  0  0  0  0  0  0
   10.5552   -1.8414    0.0000 C   0  0  0  0  0  0  0  0  0  0  0  0
   10.8572   -2.9684    0.0000 O   0  0  0  0  0  0  0  0  0  0  0  0
   11.5717   -2.5559    0.0000 Si  0  0  0  0  0  0  0  0  0  0  0  0
   11.9842   -3.2704    0.0000 C   0  0  0  0  0  0  0  0  0  0  0  0
   11.1592   -1.8414    0.0000 C   0  0  0  0  0  0  0  0  0  0  0  0
   12.2861   -2.1434    0.0000 O   0  0  0  0  0  0  0  0  0  0  0  0
   13.0006   -2.5559    0.0000 Si  0  0  0  0  0  0  0  0  0  0  0  0
   12.5881   -3.2704    0.0000 C   0  0  0  0  0  0  0  0  0  0  0  0
   13.4131   -1.8414    0.0000 C   0  0  0  0  0  0  0  0  0  0  0  0
   13.7151   -2.9684    0.0000 O   0  0  0  0  0  0  0  0  0  0  0  0
   14.4296   -2.5559    0.0000 Si  0  0  0  0  0  0  0  0  0  0  0  0
   14.8421   -3.2704    0.0000 C   0  0  0  0  0  0  0  0  0  0  0  0
   14.0171   -1.8414    0.0000 C   0  0  0  0  0  0  0  0  0  0  0  0
   15.1440   -2.1434    0.0000 O   0  0  0  0  0  0  0  0  0  0  0  0
   15.8585   -2.5559    0.0000 Si  0  0  0  0  0  0  0  0  0  0  0  0
   15.4460   -3.2704    0.0000 C   0  0  0  0  0  0  0  0  0  0  0  0
   16.2710   -1.8414    0.0000 C   0  0  0  0  0  0  0  0  0  0  0  0
   16.5730   -2.9684    0.0000 C   0  0  0  0  0  0  0  0  0  0  0  0
   17.2874   -2.5559    0.0000 C   0  0  0  0  0  0  0  0  0  0  0  0
   18.0019   -2.9684    0.0000 C   0  0  0  0  0  0  0  0  0  0  0  0
   18.7164   -2.5559    0.0000 C   0  0  0  0  0  0  0  0  0  0  0  0
  1  2  1  0  0  0  0
  2  3  2  0  0  0  0
  2  4  1  0  0  0  0
  4  5  2  0  0  0  0
  4  6  1  0  0  0  0
  6  7  1  0  0  0  0
  7  8  1  0  0  0  0
  8  9  1  0  0  0  0
  9 10  1  0  0  0  0
 10 11  1  0  0  0  0
 11 12  1  0  0  0  0
 12 13  1  0  0  0  0
 13 14  1  0  0  0  0
 13 15  1  0  0  0  0
 13 16  1  0  0  0  0
 16 17  1  0  0  0  0
 17 18  1  0  0  0  0
 17 19  1  0  0  0  0
 17 20  1  0  0  0  0
 20 21  1  0  0  0  0
 21 22  1  0  0  0  0
 21 23  1  0  0  0  0
 21 24  1  0  0  0  0
 24 25  1  0  0  0  0
 25 26  1  0  0  0  0
 25 27  1  0  0  0  0
 25 28  1  0  0  0  0
 28 29  1  0  0  0  0
 29 30  1  0  0  0  0
 29 31  1  0  0  0  0
 29 32  1  0  0  0  0
 32 33  1  0  0  0  0
 33 34  1  0  0  0  0
 34 35  1  0  0  0  0
M  END
> <RowID>
279

> <Original_SMILES>
CC(=C)C(=O)OCCOCCC[Si](C)(C)O[Si](C)(C)O[Si](C)(C)O[Si](C)(C)O[Si](C)(C)CCCC

> <Canonical_QSARr>
CC(=C)C(=O)OCCOCCC[Si](C)(C)O[Si](C)(C)O[Si](C)(C)O[Si](C)(C)O[Si](C)(C)CCCC

> <InChI_Code_QSARr>
InChI=1S/C23H54O7Si5/c1-14-15-20-31(4,5)27-33(8,9)29-35(12,13)30-34(10,11)28-32(6,7)21-16-17-25-18-19-26-23(24)22(2)3/h2,14-21H2,1,3-13H3

> <InChI Key_QSARr>
NEWDMEQZRLPOKM-UHFFFAOYSA-N

> <Salt_Solvent>


> <Salt_Solvent_ID>
0

> <Number of connected components>
1

$$$$
Molecule_280
  Mrv2316 01072400032D          

 12 11  0  0  0  0            999 V2000
    2.2836    2.1434    0.0000 N   0  0  0  0  0  0  0  0  0  0  0  0
    2.9980    2.5559    0.0000 N   0  0  0  0  0  0  0  0  0  0  0  0
    3.7125    2.1434    0.0000 C   0  0  0  0  0  0  0  0  0  0  0  0
    3.7125    1.3184    0.0000 O   0  0  0  0  0  0  0  0  0  0  0  0
    4.4270    2.5559    0.0000 C   0  0  0  0  0  0  0  0  0  0  0  0
    5.1414    2.1434    0.0000 C   0  0  0  0  0  0  0  0  0  0  0  0
    5.8559    2.5559    0.0000 C   0  0  0  0  0  0  0  0  0  0  0  0
    6.5704    2.1434    0.0000 C   0  0  0  0  0  0  0  0  0  0  0  0
    7.2849    2.5559    0.0000 C   0  0  0  0  0  0  0  0  0  0  0  0
    7.2849    3.3809    0.0000 O   0  0  0  0  0  0  0  0  0  0  0  0
    7.9993    2.1434    0.0000 N   0  0  0  0  0  0  0  0  0  0  0  0
    8.7138    2.5559    0.0000 N   0  0  0  0  0  0  0  0  0  0  0  0
  1  2  1  0  0  0  0
  2  3  1  0  0  0  0
  3  4  2  0  0  0  0
  3  5  1  0  0  0  0
  5  6  1  0  0  0  0
  6  7  1  0  0  0  0
  7  8  1  0  0  0  0
  8  9  1  0  0  0  0
  9 10  2  0  0  0  0
  9 11  1  0  0  0  0
 11 12  1  0  0  0  0
M  END
> <RowID>
280

> <Original_SMILES>
NNC(=O)CCCCC(=O)NN

> <Canonical_QSARr>
NNC(=O)CCCCC(=O)NN

> <InChI_Code_QSARr>
InChI=1S/C6H14N4O2/c7-9-5(11)3-1-2-4-6(12)10-8/h1-4,7-8H2,(H,9,11)(H,10,12)

> <InChI Key_QSARr>
IBVAQQYNSHJXBV-UHFFFAOYSA-N

> <Salt_Solvent>


> <Salt_Solvent_ID>
0

> <Number of connected components>
1

$$$$
Molecule_281
  Mrv2316 01072400032D          

 18 19  0  0  0  0            999 V2000
    1.4289   -5.5917    0.0000 C   0  0  0  0  0  0  0  0  0  0  0  0
    2.1434   -5.1792    0.0000 C   0  0  0  0  0  0  0  0  0  0  0  0
    2.8579   -5.5917    0.0000 O   0  0  0  0  0  0  0  0  0  0  0  0
    2.1434   -4.3542    0.0000 C   0  0  0  0  0  0  0  0  0  0  0  0
    2.8579   -3.9417    0.0000 C   0  0  0  0  0  0  0  0  0  0  0  0
    2.8579   -3.1167    0.0000 C   0  0  0  0  0  0  0  0  0  0  0  0
    2.1434   -2.7042    0.0000 C   0  0  0  0  0  0  0  0  0  0  0  0
    2.1434   -1.8792    0.0000 O   0  0  0  0  0  0  0  0  0  0  0  0
    1.4289   -1.4667    0.0000 C   0  0  0  0  0  0  0  0  0  0  0  0
    1.4289   -0.6417    0.0000 C   0  0  0  0  0  0  0  0  0  0  0  0
    0.7145   -0.2292    0.0000 C   0  0  0  0  0  0  0  0  0  0  0  0
   -0.0000   -0.6417    0.0000 C   0  0  0  0  0  0  0  0  0  0  0  0
   -0.7145   -0.2292    0.0000 Cl  0  0  0  0  0  0  0  0  0  0  0  0
   -0.0000   -1.4667    0.0000 C   0  0  0  0  0  0  0  0  0  0  0  0
    0.7145   -1.8792    0.0000 C   0  0  0  0  0  0  0  0  0  0  0  0
    1.4289   -3.1167    0.0000 C   0  0  0  0  0  0  0  0  0  0  0  0
    1.4289   -3.9417    0.0000 C   0  0  0  0  0  0  0  0  0  0  0  0
    0.7145   -4.3542    0.0000 Cl  0  0  0  0  0  0  0  0  0  0  0  0
  1  2  1  0  0  0  0
  2  3  2  0  0  0  0
  2  4  1  0  0  0  0
  5  4  1  0  0  0  0
  6  5  2  0  0  0  0
  7  6  1  0  0  0  0
  7  8  1  0  0  0  0
  8  9  1  0  0  0  0
 10  9  1  0  0  0  0
 11 10  2  0  0  0  0
 12 11  1  0  0  0  0
 12 13  1  0  0  0  0
 14 12  2  0  0  0  0
 15 14  1  0  0  0  0
  9 15  2  0  0  0  0
 16  7  2  0  0  0  0
 17 16  1  0  0  0  0
  4 17  2  0  0  0  0
 17 18  1  0  0  0  0
M  END
> <RowID>
281

> <Original_SMILES>
CC(=O)C1C=CC(=CC=1Cl)OC1C=CC(Cl)=CC=1

> <Canonical_QSARr>
CC(=O)C1C=CC(=CC=1Cl)OC1C=CC(Cl)=CC=1

> <InChI_Code_QSARr>
InChI=1S/C14H10Cl2O2/c1-9(17)13-7-6-12(8-14(13)16)18-11-4-2-10(15)3-5-11/h2-8H,1H3

> <InChI Key_QSARr>
BDTJIVUVQRVLLJ-UHFFFAOYSA-N

> <Salt_Solvent>


> <Salt_Solvent_ID>
0

> <Number of connected components>
1

$$$$
Molecule_282
  Mrv2316 01072400032D          

  9  9  0  0  0  0            999 V2000
    0.7145   -1.0542    0.0000 N   0  0  0  0  0  0  0  0  0  0  0  0
    0.7145   -0.2292    0.0000 C   0  0  0  0  0  0  0  0  0  0  0  0
    1.4289    0.1833    0.0000 N   0  0  0  0  0  0  0  0  0  0  0  0
    1.4289    1.0083    0.0000 C   0  0  0  0  0  0  0  0  0  0  0  0
    0.7145    1.4208    0.0000 C   0  0  0  0  0  0  0  0  0  0  0  0
    0.7145    2.2458    0.0000 Br  0  0  0  0  0  0  0  0  0  0  0  0
    0.0000    1.0083    0.0000 C   0  0  0  0  0  0  0  0  0  0  0  0
    0.0000    0.1833    0.0000 C   0  0  0  0  0  0  0  0  0  0  0  0
   -0.7145   -0.2292    0.0000 O   0  0  0  0  0  0  0  0  0  0  0  0
  1  2  1  0  0  0  0
  3  2  1  0  0  0  0
  4  3  2  0  0  0  0
  5  4  1  0  0  0  0
  5  6  1  0  0  0  0
  7  5  2  0  0  0  0
  8  7  1  0  0  0  0
  2  8  2  0  0  0  0
  8  9  1  0  0  0  0
M  END
> <RowID>
282

> <Original_SMILES>
NC1N=CC(Br)=CC=1O

> <Canonical_QSARr>
NC1N=CC(Br)=CC=1O

> <InChI_Code_QSARr>
InChI=1S/C5H5BrN2O/c6-3-1-4(9)5(7)8-2-3/h1-2,9H,(H2,7,8)

> <InChI Key_QSARr>
YQADLKDQAXAIKW-UHFFFAOYSA-N

> <Salt_Solvent>


> <Salt_Solvent_ID>
0

> <Number of connected components>
1

$$$$
Molecule_283
  Mrv2316 01072400032D          

 11 10  0  0  0  0            999 V2000
   -0.6039   -3.3000    0.0000 O   0  0  0  0  0  0  0  0  0  0  0  0
   -0.6039   -2.4750    0.0000 C   0  0  0  0  0  0  0  0  0  0  0  0
   -1.3184   -2.0625    0.0000 O   0  0  0  0  0  0  0  0  0  0  0  0
    0.1105   -2.0625    0.0000 C   0  0  0  0  0  0  0  0  0  0  0  0
    0.1105   -1.2375    0.0000 C   0  0  0  0  0  0  0  0  0  0  0  0
   -0.6039   -0.8250    0.0000 C   0  0  0  0  0  0  0  0  0  0  0  0
    0.8250   -0.8250    0.0000 C   0  0  0  0  0  0  0  0  0  0  0  0
    0.8250   -0.0000    0.0000 C   0  0  0  0  0  0  0  0  0  0  0  0
    0.8250    0.8250    0.0000 C   0  0  0  0  0  0  0  0  0  0  0  0
    1.6500   -0.0000    0.0000 C   0  0  0  0  0  0  0  0  0  0  0  0
    0.0000   -0.0000    0.0000 C   0  0  0  0  0  0  0  0  0  0  0  0
  1  2  1  0  0  0  0
  2  3  2  0  0  0  0
  2  4  1  0  0  0  0
  4  5  1  0  0  0  0
  5  6  1  0  0  0  0
  5  7  1  0  0  0  0
  7  8  1  0  0  0  0
  8  9  1  0  0  0  0
  8 10  1  0  0  0  0
  8 11  1  0  0  0  0
M  END
> <RowID>
283

> <Original_SMILES>
[Sn+2].CC(C)(C)CC(C)CC([O-])=O.CC(C)(C)CC(C)CC([O-])=O

> <Canonical_QSARr>
CC(CC(O)=O)CC(C)(C)C

> <InChI_Code_QSARr>
InChI=1S/C9H18O2/c1-7(5-8(10)11)6-9(2,3)4/h7H,5-6H2,1-4H3,(H,10,11)

> <InChI Key_QSARr>
OILUAKBAMVLXGF-UHFFFAOYSA-N

> <Salt_Solvent>
[Sn+2]

> <Salt_Solvent_ID>
500

> <Number of connected components>
3

$$$$
Molecule_284
  Mrv2316 01072400032D          

 13 12  0  0  0  0            999 V2000
    0.8250    0.0000    0.0000 N   0  0  0  0  0  0  0  0  0  0  0  0
    1.2375    0.7145    0.0000 C   0  0  0  0  0  0  0  0  0  0  0  0
   -0.0000    0.0000    0.0000 C   0  0  0  0  0  0  0  0  0  0  0  0
   -0.4125    0.7145    0.0000 C   0  0  0  0  0  0  0  0  0  0  0  0
   -0.8250    1.4290    0.0000 F   0  0  0  0  0  0  0  0  0  0  0  0
   -1.1270    0.3020    0.0000 F   0  0  0  0  0  0  0  0  0  0  0  0
    0.3020    1.1270    0.0000 F   0  0  0  0  0  0  0  0  0  0  0  0
   -0.4125   -0.7145    0.0000 C   0  0  0  0  0  0  0  0  0  0  0  0
   -1.2375   -0.7145    0.0000 C   0  0  0  0  0  0  0  0  0  0  0  0
   -1.6500    0.0000    0.0000 O   0  0  0  0  0  0  0  0  0  0  0  0
   -1.6500   -1.4289    0.0000 O   0  0  0  0  0  0  0  0  0  0  0  0
   -2.4750   -1.4289    0.0000 C   0  0  0  0  0  0  0  0  0  0  0  0
   -2.8875   -2.1434    0.0000 C   0  0  0  0  0  0  0  0  0  0  0  0
  1  2  1  4  0  0  0
  1  3  2  0  0  0  0
  3  4  1  0  0  0  0
  4  5  1  0  0  0  0
  4  6  1  0  0  0  0
  4  7  1  0  0  0  0
  3  8  1  0  0  0  0
  8  9  1  0  0  0  0
  9 10  2  0  0  0  0
  9 11  1  0  0  0  0
 11 12  1  0  0  0  0
 12 13  1  0  0  0  0
M  END
> <RowID>
284

> <Original_SMILES>
CCOC(=O)C=C(NC)C(F)(F)F

> <Canonical_QSARr>
CCOC(=O)CC(=NC)C(F)(F)F

> <InChI_Code_QSARr>
InChI=1S/C7H10F3NO2/c1-3-13-6(12)4-5(11-2)7(8,9)10/h3-4H2,1-2H3

> <InChI Key_QSARr>
VQVAMOINEQQJNA-UHFFFAOYSA-N

> <Salt_Solvent>


> <Salt_Solvent_ID>
0

> <Number of connected components>
1

$$$$
Molecule_287
  Mrv2316 01072400032D          

 29 34  0  0  0  0            999 V2000
    3.4639   -1.5545    0.0000 C   0  0  0  0  0  0  0  0  0  0  0  0
    3.8620   -2.2771    0.0000 C   0  0  0  0  0  0  0  0  0  0  0  0
    4.3602   -1.6195    0.0000 C   0  0  0  0  0  0  0  0  0  0  0  0
    5.1788   -1.7222    0.0000 C   0  0  0  0  0  0  0  0  0  0  0  0
    5.4992   -2.4824    0.0000 C   0  0  0  0  0  0  0  0  0  0  0  0
    5.0010   -3.1400    0.0000 C   0  0  0  0  0  0  0  0  0  0  0  0
    5.3214   -3.9003    0.0000 C   0  0  0  0  0  0  0  0  0  0  0  0
    6.1400   -4.0029    0.0000 C   0  0  0  0  0  0  0  0  0  0  0  0
    6.6382   -3.3453    0.0000 C   0  0  0  0  0  0  0  0  0  0  0  0
    7.4568   -3.4480    0.0000 C   0  0  0  0  0  0  0  0  0  0  0  0
    7.9550   -2.7904    0.0000 C   0  0  0  0  0  0  0  0  0  0  0  0
    8.3531   -3.5130    0.0000 O   0  0  0  0  0  0  0  0  0  0  0  0
    9.1633   -3.3577    0.0000 C   0  0  0  0  0  0  0  0  0  0  0  0
    9.2660   -2.5391    0.0000 C   0  0  0  0  0  0  0  0  0  0  0  0
    8.5192   -2.1885    0.0000 O   0  0  0  0  0  0  0  0  0  0  0  0
    7.6346   -2.0302    0.0000 C   0  0  0  0  0  0  0  0  0  0  0  0
    6.8160   -1.9275    0.0000 C   0  0  0  0  0  0  0  0  0  0  0  0
    6.3178   -2.5851    0.0000 C   0  0  0  0  0  0  0  0  0  0  0  0
    5.9974   -1.8248    0.0000 C   0  0  0  0  0  0  0  0  0  0  0  0
    4.1824   -3.0374    0.0000 C   0  0  0  0  0  0  0  0  0  0  0  0
    3.5584   -3.5770    0.0000 C   0  0  0  0  0  0  0  0  0  0  0  0
    2.8523   -3.1503    0.0000 C   0  0  0  0  0  0  0  0  0  0  0  0
    3.0400   -2.3469    0.0000 C   0  0  0  0  0  0  0  0  0  0  0  0
    2.5003   -1.7229    0.0000 C   0  0  0  0  0  0  0  0  0  0  0  0
    1.9361   -2.3248    0.0000 C   0  0  0  0  0  0  0  0  0  0  0  0
    3.1773   -1.2514    0.0000 O   0  0  0  0  0  0  0  0  0  0  0  0
    2.9382   -0.4618    0.0000 C   0  0  0  0  0  0  0  0  0  0  0  0
    2.1133   -0.4453    0.0000 C   0  0  0  0  0  0  0  0  0  0  0  0
    1.8427   -1.2247    0.0000 O   0  0  0  0  0  0  0  0  0  0  0  0
  1  2  1  0  0  0  0
  3  2  1  0  0  0  0
  4  3  1  0  0  0  0
  5  4  1  0  0  0  0
  5  6  1  0  0  0  0
  6  7  2  0  0  0  0
  7  8  1  0  0  0  0
  8  9  2  0  0  0  0
 10  9  1  0  0  0  0
 11 10  1  0  0  0  0
 12 11  1  0  0  0  0
 13 12  1  0  0  0  0
 14 13  1  0  0  0  0
 15 14  1  0  0  0  0
 11 15  1  0  0  0  0
 16 11  1  0  0  0  0
 17 16  1  0  0  0  0
 18 17  1  0  0  0  0
  9 18  1  0  0  0  0
 18  5  1  0  0  0  0
 18 19  1  0  0  0  0
 20  6  1  0  0  0  0
 20  2  1  0  0  0  0
 21 20  1  0  0  0  0
 22 21  1  0  0  0  0
 23 22  1  0  0  0  0
  2 23  1  0  0  0  0
 23 24  1  0  0  0  0
 24 25  1  0  0  0  0
 26 24  1  0  0  0  0
 27 26  1  0  0  0  0
 28 27  1  0  0  0  0
 29 28  1  0  0  0  0
 24 29  1  0  0  0  0
M  END
> <RowID>
287

> <Original_SMILES>
CC12CCC3C(=CC=C4CC5(CCC43C)OCCO5)C1CCC2C1(C)OCCO1

> <Canonical_QSARr>
CC12CCC3C(=CC=C4CC5(CCC43C)OCCO5)C1CCC2C1(C)OCCO1

> <InChI_Code_QSARr>
InChI=1S/C25H36O4/c1-22-10-11-25(28-14-15-29-25)16-17(22)4-5-18-19-6-7-21(24(3)26-12-13-27-24)23(19,2)9-8-20(18)22/h4-5,19-21H,6-16H2,1-3H3

> <InChI Key_QSARr>
CFZNXPSHLNMZGD-UHFFFAOYSA-N

> <Salt_Solvent>


> <Salt_Solvent_ID>
0

> <Number of connected components>
1

$$$$
Molecule_288
  Mrv2316 01072400032D          

  9  9  0  0  0  0            999 V2000
    0.7145   -1.0542    0.0000 C   0  0  0  0  0  0  0  0  0  0  0  0
    0.7145   -0.2292    0.0000 C   0  0  0  0  0  0  0  0  0  0  0  0
    1.4289    0.1833    0.0000 C   0  0  0  0  0  0  0  0  0  0  0  0
    1.4289    1.0083    0.0000 C   0  0  0  0  0  0  0  0  0  0  0  0
    0.7145    1.4208    0.0000 C   0  0  0  0  0  0  0  0  0  0  0  0
    0.7145    2.2458    0.0000 Cl  0  0  0  0  0  0  0  0  0  0  0  0
    0.0000    1.0083    0.0000 C   0  0  0  0  0  0  0  0  0  0  0  0
    0.0000    0.1833    0.0000 C   0  0  0  0  0  0  0  0  0  0  0  0
   -0.7145   -0.2292    0.0000 Cl  0  0  0  0  0  0  0  0  0  0  0  0
  1  2  1  0  0  0  0
  3  2  2  0  0  0  0
  4  3  1  0  0  0  0
  5  4  2  0  0  0  0
  5  6  1  0  0  0  0
  7  5  1  0  0  0  0
  8  7  2  0  0  0  0
  2  8  1  0  0  0  0
  8  9  1  0  0  0  0
M  END
> <RowID>
288

> <Original_SMILES>
CC1=CC=C(Cl)C=C1Cl

> <Canonical_QSARr>
CC1=CC=C(Cl)C=C1Cl

> <InChI_Code_QSARr>
InChI=1S/C7H6Cl2/c1-5-2-3-6(8)4-7(5)9/h2-4H,1H3

> <InChI Key_QSARr>
FUNUTBJJKQIVSY-UHFFFAOYSA-N

> <Salt_Solvent>


> <Salt_Solvent_ID>
0

> <Number of connected components>
1

$$$$
Molecule_289
  Mrv2316 01072400032D          

 19 19  0  0  0  0            999 V2000
    0.2055   -1.3344    0.0000 C   0  0  0  0  0  0  0  0  0  0  0  0
    0.2055   -0.5094    0.0000 C   0  0  0  0  0  0  0  0  0  0  0  0
   -0.5090   -0.0969    0.0000 C   0  0  0  0  0  0  0  0  0  0  0  0
    0.9199   -0.0969    0.0000 C   0  0  0  0  0  0  0  0  0  0  0  0
    0.9199    0.7281    0.0000 C   0  0  0  0  0  0  0  0  0  0  0  0
    1.6344    1.1406    0.0000 C   0  0  0  0  0  0  0  0  0  0  0  0
    1.6344    1.9656    0.0000 C   0  0  0  0  0  0  0  0  0  0  0  0
    2.4594    1.9656    0.0000 C   0  0  0  0  0  0  0  0  0  0  0  0
    0.8094    1.9656    0.0000 C   0  0  0  0  0  0  0  0  0  0  0  0
    0.3969    2.6801    0.0000 C   0  0  0  0  0  0  0  0  0  0  0  0
    1.6344    2.7906    0.0000 C   0  0  0  0  0  0  0  0  0  0  0  0
    2.3489    3.2031    0.0000 C   0  0  0  0  0  0  0  0  0  0  0  0
    2.3489    4.0281    0.0000 C   0  0  0  0  0  0  0  0  0  0  0  0
    3.0633    4.4406    0.0000 C   0  0  0  0  0  0  0  0  0  0  0  0
    3.0633    5.2656    0.0000 C   0  0  0  0  0  0  0  0  0  0  0  0
    2.3489    5.6781    0.0000 C   0  0  0  0  0  0  0  0  0  0  0  0
    2.3489    6.5031    0.0000 O   0  0  0  0  0  0  0  0  0  0  0  0
    1.6344    5.2656    0.0000 C   0  0  0  0  0  0  0  0  0  0  0  0
    1.6344    4.4406    0.0000 C   0  0  0  0  0  0  0  0  0  0  0  0
  1  2  1  0  0  0  0
  2  3  1  0  0  0  0
  2  4  2  0  0  0  0
  4  5  1  0  0  0  0
  5  6  1  0  0  0  0
  6  7  1  0  0  0  0
  7  8  1  0  0  0  0
  7  9  1  0  0  0  0
  9 10  2  0  0  0  0
 11  7  1  4  0  0  0
 11 12  2  0  0  0  0
 12 13  1  0  0  0  0
 14 13  1  0  0  0  0
 15 14  2  0  0  0  0
 16 15  1  0  0  0  0
 16 17  1  0  0  0  0
 18 16  2  0  0  0  0
 19 18  1  0  0  0  0
 13 19  2  0  0  0  0
M  END
> <RowID>
289

> <Original_SMILES>
CC(C)=CCCC(C)(C=C)C=CC1C=CC(O)=CC=1

> <Canonical_QSARr>
CC(C)=CCCC(C)(C=C)C=CC1C=CC(O)=CC=1

> <InChI_Code_QSARr>
InChI=1S/C18H24O/c1-5-18(4,13-6-7-15(2)3)14-12-16-8-10-17(19)11-9-16/h5,7-12,14,19H,1,6,13H2,2-4H3

> <InChI Key_QSARr>
LFYJSSARVMHQJB-UHFFFAOYSA-N

> <Salt_Solvent>


> <Salt_Solvent_ID>
0

> <Number of connected components>
1

$$$$
Molecule_290
  Mrv2316 01072400032D          

 15 15  0  0  0  0            999 V2000
    0.0000   -4.0150    0.0000 C   0  0  0  0  0  0  0  0  0  0  0  0
    0.7145   -3.6025    0.0000 C   0  0  0  0  0  0  0  0  0  0  0  0
    0.7145   -2.7775    0.0000 O   0  0  0  0  0  0  0  0  0  0  0  0
    1.4289   -4.0150    0.0000 C   0  0  0  0  0  0  0  0  0  0  0  0
    2.1434   -3.6025    0.0000 C   0  0  0  0  0  0  0  0  0  0  0  0
    2.1434   -2.7775    0.0000 O   0  0  0  0  0  0  0  0  0  0  0  0
    2.8579   -4.0150    0.0000 N   0  0  0  0  0  0  0  0  0  0  0  0
    3.5724   -3.6025    0.0000 C   0  0  0  0  0  0  0  0  0  0  0  0
    4.2868   -4.0150    0.0000 C   0  0  0  0  0  0  0  0  0  0  0  0
    5.0013   -3.6025    0.0000 C   0  0  0  0  0  0  0  0  0  0  0  0
    5.0013   -2.7775    0.0000 C   0  0  0  0  0  0  0  0  0  0  0  0
    5.7158   -2.3650    0.0000 C   0  0  0  0  0  0  0  0  0  0  0  0
    4.2868   -2.3650    0.0000 C   0  0  0  0  0  0  0  0  0  0  0  0
    3.5724   -2.7775    0.0000 C   0  0  0  0  0  0  0  0  0  0  0  0
    2.8579   -2.3650    0.0000 C   0  0  0  0  0  0  0  0  0  0  0  0
  1  2  1  0  0  0  0
  2  3  2  0  0  0  0
  2  4  1  0  0  0  0
  4  5  1  0  0  0  0
  5  6  2  0  0  0  0
  5  7  1  0  0  0  0
  7  8  1  0  0  0  0
  9  8  2  0  0  0  0
 10  9  1  0  0  0  0
 11 10  2  0  0  0  0
 11 12  1  0  0  0  0
 13 11  1  0  0  0  0
 14 13  2  0  0  0  0
  8 14  1  0  0  0  0
 14 15  1  0  0  0  0
M  END
> <RowID>
290

> <Original_SMILES>
CC(=O)CC(=O)NC1=CC=C(C)C=C1C

> <Canonical_QSARr>
CC(=O)CC(=O)NC1=CC=C(C)C=C1C

> <InChI_Code_QSARr>
InChI=1S/C12H15NO2/c1-8-4-5-11(9(2)6-8)13-12(15)7-10(3)14/h4-6H,7H2,1-3H3,(H,13,15)

> <InChI Key_QSARr>
HGVIAKXYAZRSEG-UHFFFAOYSA-N

> <Salt_Solvent>


> <Salt_Solvent_ID>
0

> <Number of connected components>
1

$$$$
Molecule_292
  Mrv2316 01072400032D          

 11 11  0  0  0  0            999 V2000
    0.0000   -1.2750    0.0000 C   0  0  0  0  0  0  0  0  0  0  0  0
    0.0000   -0.4500    0.0000 C   0  0  0  0  0  0  0  0  0  0  0  0
   -0.7145   -0.0375    0.0000 O   0  0  0  0  0  0  0  0  0  0  0  0
    0.7145   -0.0375    0.0000 O   0  0  0  0  0  0  0  0  0  0  0  0
    0.7145    0.7875    0.0000 C   0  0  0  0  0  0  0  0  0  0  0  0
    1.4289    1.2000    0.0000 C   0  0  0  0  0  0  0  0  0  0  0  0
    1.4289    2.0250    0.0000 C   0  0  0  0  0  0  0  0  0  0  0  0
    0.7145    2.4375    0.0000 C   0  0  0  0  0  0  0  0  0  0  0  0
    0.7145    3.2625    0.0000 Br  0  0  0  0  0  0  0  0  0  0  0  0
    0.0000    2.0250    0.0000 C   0  0  0  0  0  0  0  0  0  0  0  0
    0.0000    1.2000    0.0000 C   0  0  0  0  0  0  0  0  0  0  0  0
  1  2  1  0  0  0  0
  2  3  2  0  0  0  0
  2  4  1  0  0  0  0
  4  5  1  0  0  0  0
  6  5  1  0  0  0  0
  7  6  2  0  0  0  0
  8  7  1  0  0  0  0
  8  9  1  0  0  0  0
 10  8  2  0  0  0  0
 11 10  1  0  0  0  0
  5 11  2  0  0  0  0
M  END
> <RowID>
292

> <Original_SMILES>
CC(=O)OC1C=CC(Br)=CC=1

> <Canonical_QSARr>
CC(=O)OC1C=CC(Br)=CC=1

> <InChI_Code_QSARr>
InChI=1S/C8H7BrO2/c1-6(10)11-8-4-2-7(9)3-5-8/h2-5H,1H3

> <InChI Key_QSARr>
XEXHCQJRVMVJMY-UHFFFAOYSA-N

> <Salt_Solvent>


> <Salt_Solvent_ID>
0

> <Number of connected components>
1

$$$$
Molecule_293
  Mrv2316 01072400032D          

 16 15  0  0  0  0            999 V2000
    4.5375   -3.5724    0.0000 C   0  0  0  0  0  0  0  0  0  0  0  0
    3.7125   -3.5724    0.0000 C   0  0  0  0  0  0  0  0  0  0  0  0
    3.3000   -4.2868    0.0000 O   0  0  0  0  0  0  0  0  0  0  0  0
    3.3000   -2.8579    0.0000 N   0  0  0  0  0  0  0  0  0  0  0  0
    2.4750   -2.8579    0.0000 C   0  0  0  0  0  0  0  0  0  0  0  0
    2.0625   -2.1434    0.0000 C   0  0  0  0  0  0  0  0  0  0  0  0
    1.2375   -2.1434    0.0000 N   0  0  0  0  0  0  0  0  0  0  0  0
    0.8250   -1.4289    0.0000 C   0  0  0  0  0  0  0  0  0  0  0  0
    0.0000   -1.4289    0.0000 C   0  0  0  0  0  0  0  0  0  0  0  0
    1.2375   -0.7145    0.0000 O   0  0  0  0  0  0  0  0  0  0  0  0
    0.8250   -2.8579    0.0000 C   0  0  0  0  0  0  0  0  0  0  0  0
    0.0000   -2.8579    0.0000 C   0  0  0  0  0  0  0  0  0  0  0  0
    1.2375   -3.5724    0.0000 O   0  0  0  0  0  0  0  0  0  0  0  0
    3.7125   -2.1434    0.0000 C   0  0  0  0  0  0  0  0  0  0  0  0
    3.3000   -1.4289    0.0000 C   0  0  0  0  0  0  0  0  0  0  0  0
    4.5375   -2.1434    0.0000 O   0  0  0  0  0  0  0  0  0  0  0  0
  1  2  1  0  0  0  0
  2  3  2  0  0  0  0
  2  4  1  0  0  0  0
  4  5  1  0  0  0  0
  5  6  1  0  0  0  0
  6  7  1  0  0  0  0
  7  8  1  0  0  0  0
  8  9  1  0  0  0  0
  8 10  2  0  0  0  0
  7 11  1  0  0  0  0
 11 12  1  0  0  0  0
 11 13  2  0  0  0  0
  4 14  1  0  0  0  0
 14 15  1  0  0  0  0
 14 16  2  0  0  0  0
M  END
> <RowID>
293

> <Original_SMILES>
CC(=O)N(CCN(C(C)=O)C(C)=O)C(C)=O

> <Canonical_QSARr>
CC(=O)N(CCN(C(C)=O)C(C)=O)C(C)=O

> <InChI_Code_QSARr>
InChI=1S/C10H16N2O4/c1-7(13)11(8(2)14)5-6-12(9(3)15)10(4)16/h5-6H2,1-4H3

> <InChI Key_QSARr>
BGRWYDHXPHLNKA-UHFFFAOYSA-N

> <Salt_Solvent>


> <Salt_Solvent_ID>
0

> <Number of connected components>
1

$$$$
Molecule_294
  Mrv2316 01072400032D          

 13 12  0  0  0  0            999 V2000
    4.6184    0.1914    0.0000 C   0  0  0  0  0  0  0  0  0  0  0  0
    3.9039    0.6039    0.0000 C   0  0  0  0  0  0  0  0  0  0  0  0
    3.1895    0.1914    0.0000 O   0  0  0  0  0  0  0  0  0  0  0  0
    3.9039    1.4289    0.0000 C   0  0  0  0  0  0  0  0  0  0  0  0
    3.1895    1.8414    0.0000 C   0  0  0  0  0  0  0  0  0  0  0  0
    2.4750    1.4289    0.0000 C   0  0  0  0  0  0  0  0  0  0  0  0
    2.4750    0.6039    0.0000 O   0  0  0  0  0  0  0  0  0  0  0  0
    1.7605    1.8414    0.0000 O   0  0  0  0  0  0  0  0  0  0  0  0
    1.0461    1.4289    0.0000 C   0  0  0  0  0  0  0  0  0  0  0  0
    4.6184    1.8414    0.0000 C   0  0  0  0  0  0  0  0  0  0  0  0
    4.6184    2.6664    0.0000 O   0  0  0  0  0  0  0  0  0  0  0  0
    5.3329    1.4289    0.0000 O   0  0  0  0  0  0  0  0  0  0  0  0
    6.0474    1.8414    0.0000 C   0  0  0  0  0  0  0  0  0  0  0  0
  1  2  1  0  0  0  0
  2  3  2  0  0  0  0
  2  4  1  0  0  0  0
  4  5  1  0  0  0  0
  5  6  1  0  0  0  0
  6  7  2  0  0  0  0
  6  8  1  0  0  0  0
  8  9  1  0  0  0  0
  4 10  1  0  0  0  0
 10 11  2  0  0  0  0
 10 12  1  0  0  0  0
 12 13  1  0  0  0  0
M  END
> <RowID>
294

> <Original_SMILES>
CC(=O)C(CC(=O)OC)C(=O)OC

> <Canonical_QSARr>
CC(=O)C(CC(=O)OC)C(=O)OC

> <InChI_Code_QSARr>
InChI=1S/C8H12O5/c1-5(9)6(8(11)13-3)4-7(10)12-2/h6H,4H2,1-3H3

> <InChI Key_QSARr>
XREKLQOUFWBSFH-UHFFFAOYSA-N

> <Salt_Solvent>


> <Salt_Solvent_ID>
0

> <Number of connected components>
1

$$$$
Molecule_295
  Mrv2316 01072400032D          

 10 10  0  0  0  0            999 V2000
    2.5006   -1.0313    0.0000 C   0  0  0  0  0  0  0  0  0  0  0  0
    1.7862   -0.6188    0.0000 C   0  0  0  0  0  0  0  0  0  0  0  0
    1.7862    0.2063    0.0000 C   0  0  0  0  0  0  0  0  0  0  0  0
    1.0717    0.6188    0.0000 C   0  0  0  0  0  0  0  0  0  0  0  0
    1.0717    1.4438    0.0000 N   0  3  0  0  0  0  0  0  0  0  0  0
    0.3572    1.8562    0.0000 O   0  5  0  0  0  0  0  0  0  0  0  0
    1.7862    1.8563    0.0000 O   0  0  0  0  0  0  0  0  0  0  0  0
    0.3572    0.2063    0.0000 C   0  0  0  0  0  0  0  0  0  0  0  0
    0.3572   -0.6187    0.0000 C   0  0  0  0  0  0  0  0  0  0  0  0
    1.0717   -1.0313    0.0000 C   0  0  0  0  0  0  0  0  0  0  0  0
  1  2  1  0  0  0  0
  3  2  2  0  0  0  0
  4  3  1  0  0  0  0
  4  5  1  0  0  0  0
  5  6  1  0  0  0  0
  5  7  2  0  0  0  0
  8  4  2  0  0  0  0
  9  8  1  0  0  0  0
 10  9  2  0  0  0  0
  2 10  1  0  0  0  0
M  CHG  2   5   1   6  -1
M  END
> <RowID>
295

> <Original_SMILES>
CC1=CC(=CC=C1)[N+]([O-])=O

> <Canonical_QSARr>
CC1=CC(=CC=C1)[N+]([O-])=O

> <InChI_Code_QSARr>
InChI=1S/C7H7NO2/c1-6-3-2-4-7(5-6)8(9)10/h2-5H,1H3

> <InChI Key_QSARr>
QZYHIOPPLUPUJF-UHFFFAOYSA-N

> <Salt_Solvent>


> <Salt_Solvent_ID>
0

> <Number of connected components>
1

$$$$
Molecule_296
  Mrv2316 01072400032D          

 50 53  0  0  0  0            999 V2000
    7.4448   -9.0997    0.0000 C   0  0  0  0  0  0  0  0  0  0  0  0
    6.7303   -8.6872    0.0000 C   0  0  0  0  0  0  0  0  0  0  0  0
    6.0158   -9.0997    0.0000 O   0  0  0  0  0  0  0  0  0  0  0  0
    6.7303   -7.8622    0.0000 C   0  0  0  0  0  0  0  0  0  0  0  0
    6.0158   -7.4497    0.0000 N   0  0  0  0  0  0  0  0  0  0  0  0
    6.0158   -6.6247    0.0000 N   0  0  0  0  0  0  0  0  0  0  0  0
    5.3014   -6.2122    0.0000 C   0  0  0  0  0  0  0  0  0  0  0  0
    5.3014   -5.3872    0.0000 C   0  0  0  0  0  0  0  0  0  0  0  0
    4.5869   -4.9747    0.0000 C   0  0  0  0  0  0  0  0  0  0  0  0
    4.5869   -4.1497    0.0000 Cl  0  0  0  0  0  0  0  0  0  0  0  0
    3.8724   -5.3872    0.0000 C   0  0  0  0  0  0  0  0  0  0  0  0
    3.1580   -4.9747    0.0000 C   0  0  0  0  0  0  0  0  0  0  0  0
    3.1580   -4.1497    0.0000 C   0  0  0  0  0  0  0  0  0  0  0  0
    2.4435   -3.7372    0.0000 C   0  0  0  0  0  0  0  0  0  0  0  0
    2.4435   -2.9122    0.0000 Cl  0  0  0  0  0  0  0  0  0  0  0  0
    1.7290   -4.1497    0.0000 C   0  0  0  0  0  0  0  0  0  0  0  0
    1.0146   -3.7372    0.0000 N   0  0  0  0  0  0  0  0  0  0  0  0
    1.0146   -2.9122    0.0000 N   0  0  0  0  0  0  0  0  0  0  0  0
    0.3001   -2.4997    0.0000 C   0  0  0  0  0  0  0  0  0  0  0  0
    0.3001   -1.6747    0.0000 C   0  0  0  0  0  0  0  0  0  0  0  0
    1.0146   -1.2622    0.0000 O   0  0  0  0  0  0  0  0  0  0  0  0
   -0.4144   -1.2622    0.0000 N   0  0  0  0  0  0  0  0  0  0  0  0
   -0.4144   -0.4372    0.0000 C   0  0  0  0  0  0  0  0  0  0  0  0
    0.3001   -0.0247    0.0000 C   0  0  0  0  0  0  0  0  0  0  0  0
    0.3001    0.8003    0.0000 C   0  0  0  0  0  0  0  0  0  0  0  0
   -0.4144    1.2128    0.0000 C   0  0  0  0  0  0  0  0  0  0  0  0
   -0.4144    2.0378    0.0000 C   0  0  0  0  0  0  0  0  0  0  0  0
   -1.1289    0.8003    0.0000 C   0  0  0  0  0  0  0  0  0  0  0  0
   -1.1289   -0.0247    0.0000 C   0  0  0  0  0  0  0  0  0  0  0  0
   -1.8433   -0.4372    0.0000 C   0  0  0  0  0  0  0  0  0  0  0  0
   -0.4144   -2.9122    0.0000 C   0  0  0  0  0  0  0  0  0  0  0  0
   -0.4144   -3.7372    0.0000 C   0  0  0  0  0  0  0  0  0  0  0  0
   -1.1289   -2.4997    0.0000 O   0  0  0  0  0  0  0  0  0  0  0  0
    1.7290   -4.9747    0.0000 C   0  0  0  0  0  0  0  0  0  0  0  0
    2.4435   -5.3872    0.0000 C   0  0  0  0  0  0  0  0  0  0  0  0
    2.4435   -6.2122    0.0000 Cl  0  0  0  0  0  0  0  0  0  0  0  0
    3.8724   -6.2122    0.0000 C   0  0  0  0  0  0  0  0  0  0  0  0
    4.5869   -6.6247    0.0000 C   0  0  0  0  0  0  0  0  0  0  0  0
    4.5869   -7.4497    0.0000 Cl  0  0  0  0  0  0  0  0  0  0  0  0
    7.4448   -7.4497    0.0000 C   0  0  0  0  0  0  0  0  0  0  0  0
    7.4448   -6.6247    0.0000 O   0  0  0  0  0  0  0  0  0  0  0  0
    8.1593   -7.8622    0.0000 N   0  0  0  0  0  0  0  0  0  0  0  0
    8.8737   -7.4497    0.0000 C   0  0  0  0  0  0  0  0  0  0  0  0
    9.5882   -7.8622    0.0000 C   0  0  0  0  0  0  0  0  0  0  0  0
   10.3027   -7.4497    0.0000 C   0  0  0  0  0  0  0  0  0  0  0  0
   10.3027   -6.6247    0.0000 C   0  0  0  0  0  0  0  0  0  0  0  0
   11.0171   -6.2122    0.0000 C   0  0  0  0  0  0  0  0  0  0  0  0
    9.5882   -6.2122    0.0000 C   0  0  0  0  0  0  0  0  0  0  0  0
    8.8737   -6.6247    0.0000 C   0  0  0  0  0  0  0  0  0  0  0  0
    8.1593   -6.2122    0.0000 C   0  0  0  0  0  0  0  0  0  0  0  0
  1  2  1  0  0  0  0
  2  3  2  0  0  0  0
  2  4  1  0  0  0  0
  5  4  1  4  0  0  0
  5  6  2  0  0  0  0
  6  7  1  0  0  0  0
  8  7  1  0  0  0  0
  9  8  2  0  0  0  0
  9 10  1  0  0  0  0
 11  9  1  0  0  0  0
 11 12  1  0  0  0  0
 13 12  1  0  0  0  0
 14 13  2  0  0  0  0
 14 15  1  0  0  0  0
 16 14  1  0  0  0  0
 17 16  1  4  0  0  0
 17 18  2  0  0  0  0
 18 19  1  0  0  0  0
 19 20  1  0  0  0  0
 20 21  2  0  0  0  0
 20 22  1  0  0  0  0
 22 23  1  0  0  0  0
 24 23  2  0  0  0  0
 25 24  1  0  0  0  0
 26 25  2  0  0  0  0
 26 27  1  0  0  0  0
 28 26  1  0  0  0  0
 29 28  2  0  0  0  0
 23 29  1  0  0  0  0
 29 30  1  0  0  0  0
 19 31  1  0  0  0  0
 31 32  1  0  0  0  0
 31 33  2  0  0  0  0
 34 16  2  0  0  0  0
 35 34  1  0  0  0  0
 12 35  2  0  0  0  0
 35 36  1  0  0  0  0
 37 11  2  0  0  0  0
 38 37  1  0  0  0  0
  7 38  2  0  0  0  0
 38 39  1  0  0  0  0
  4 40  1  0  0  0  0
 40 41  2  0  0  0  0
 40 42  1  0  0  0  0
 42 43  1  0  0  0  0
 44 43  2  0  0  0  0
 45 44  1  0  0  0  0
 46 45  2  0  0  0  0
 46 47  1  0  0  0  0
 48 46  1  0  0  0  0
 49 48  2  0  0  0  0
 43 49  1  0  0  0  0
 49 50  1  0  0  0  0
M  END
> <RowID>
296

> <Original_SMILES>
CC(=O)C(N=NC1C=C(Cl)C(=CC=1Cl)C1C=C(Cl)C(=CC=1Cl)N=NC(C(=O)NC1=CC=C(C)C=C1C)C(C)=O)C(=O)NC1=CC=C(C)C=C1C

> <Canonical_QSARr>
CC(=O)C(N=NC1C=C(Cl)C(=CC=1Cl)C1C=C(Cl)C(=CC=1Cl)N=NC(C(=O)NC1=CC=C(C)C=C1C)C(C)=O)C(=O)NC1=CC=C(C)C=C1C

> <InChI_Code_QSARr>
InChI=1S/C36H32Cl4N6O4/c1-17-7-9-29(19(3)11-17)41-35(49)33(21(5)47)45-43-31-15-25(37)23(13-27(31)39)24-14-28(40)32(16-26(24)38)44-46-34(22(6)48)36(50)42-30-10-8-18(2)12-20(30)4/h7-16,33-34H,1-6H3,(H,41,49)(H,42,50)

> <InChI Key_QSARr>
GPWXTTPSHZOIKO-UHFFFAOYSA-N

> <Salt_Solvent>


> <Salt_Solvent_ID>
0

> <Number of connected components>
1

$$$$
Molecule_297
  Mrv2316 01072400032D          

  4  3  0  0  0  0            999 V2000
    0.8250   -0.0000    0.0000 C   0  0  0  0  0  0  0  0  0  0  0  0
    1.2375    0.7145    0.0000 O   0  0  0  0  0  0  0  0  0  0  0  0
    1.2375   -0.7145    0.0000 O   0  0  0  0  0  0  0  0  0  0  0  0
    0.0000   -0.0000    0.0000 O   0  0  0  0  0  0  0  0  0  0  0  0
  1  2  1  0  0  0  0
  1  3  2  0  0  0  0
  1  4  1  0  0  0  0
M  END
> <RowID>
297

> <Original_SMILES>
[Na+].[Na+].[O-]C([O-])=O

> <Canonical_QSARr>
OC(O)=O

> <InChI_Code_QSARr>
InChI=1S/CH2O3/c2-1(3)4/h(H2,2,3,4)

> <InChI Key_QSARr>
BVKZGUZCCUSVTD-UHFFFAOYSA-N

> <Salt_Solvent>
[Na+]

> <Salt_Solvent_ID>
110

> <Number of connected components>
3

$$$$
Molecule_298
  Mrv2316 01072400032D          

 46 49  0  0  0  0            999 V2000
    2.2055    3.8201    0.0000 C   0  0  0  0  0  0  0  0  0  0  0  0
    1.4911    4.2326    0.0000 O   0  0  0  0  0  0  0  0  0  0  0  0
    0.7766    3.8201    0.0000 C   0  0  0  0  0  0  0  0  0  0  0  0
    0.0621    4.2326    0.0000 C   0  0  0  0  0  0  0  0  0  0  0  0
   -0.6524    3.8201    0.0000 C   0  0  0  0  0  0  0  0  0  0  0  0
   -0.6524    2.9951    0.0000 C   0  0  0  0  0  0  0  0  0  0  0  0
   -1.3668    2.5826    0.0000 C   0  0  0  0  0  0  0  0  0  0  0  0
   -2.0813    2.9951    0.0000 N   0  0  0  0  0  0  0  0  0  0  0  0
   -2.7958    2.5826    0.0000 C   0  0  0  0  0  0  0  0  0  0  0  0
   -3.5102    2.9951    0.0000 C   0  0  0  0  0  0  0  0  0  0  0  0
   -3.5102    3.8201    0.0000 C   0  0  0  0  0  0  0  0  0  0  0  0
   -4.2247    4.2326    0.0000 C   0  0  0  0  0  0  0  0  0  0  0  0
   -4.9392    3.8201    0.0000 C   0  0  0  0  0  0  0  0  0  0  0  0
   -5.6537    4.2326    0.0000 O   0  0  0  0  0  0  0  0  0  0  0  0
   -6.3681    3.8201    0.0000 C   0  0  0  0  0  0  0  0  0  0  0  0
   -7.0826    4.2326    0.0000 C   0  0  0  0  0  0  0  0  0  0  0  0
   -7.7971    3.8201    0.0000 C   0  0  0  0  0  0  0  0  0  0  0  0
   -8.5115    4.2326    0.0000 C   0  0  0  0  0  0  0  0  0  0  0  0
   -9.2260    3.8201    0.0000 C   0  0  0  0  0  0  0  0  0  0  0  0
   -9.9405    4.2326    0.0000 C   0  0  0  0  0  0  0  0  0  0  0  0
   -7.0826    5.0576    0.0000 C   0  0  0  0  0  0  0  0  0  0  0  0
   -7.7971    5.4701    0.0000 C   0  0  0  0  0  0  0  0  0  0  0  0
   -4.9392    2.9951    0.0000 C   0  0  0  0  0  0  0  0  0  0  0  0
   -4.2247    2.5826    0.0000 C   0  0  0  0  0  0  0  0  0  0  0  0
   -4.2247    1.7576    0.0000 O   0  0  0  0  0  0  0  0  0  0  0  0
   -2.7958    1.7576    0.0000 N   0  0  0  0  0  0  0  0  0  0  0  0
   -2.0813    1.3451    0.0000 C   0  0  0  0  0  0  0  0  0  0  0  0
   -2.0813    0.5201    0.0000 C   0  0  0  0  0  0  0  0  0  0  0  0
   -2.7958    0.1076    0.0000 C   0  0  0  0  0  0  0  0  0  0  0  0
   -2.7958   -0.7174    0.0000 C   0  0  0  0  0  0  0  0  0  0  0  0
   -2.0813   -1.1299    0.0000 C   0  0  0  0  0  0  0  0  0  0  0  0
   -2.0813   -1.9549    0.0000 O   0  0  0  0  0  0  0  0  0  0  0  0
   -1.3668   -2.3674    0.0000 C   0  0  0  0  0  0  0  0  0  0  0  0
   -0.6524   -1.9549    0.0000 C   0  0  0  0  0  0  0  0  0  0  0  0
    0.0621   -2.3674    0.0000 C   0  0  0  0  0  0  0  0  0  0  0  0
    0.7766   -1.9549    0.0000 C   0  0  0  0  0  0  0  0  0  0  0  0
    1.4911   -2.3674    0.0000 C   0  0  0  0  0  0  0  0  0  0  0  0
    2.2055   -1.9549    0.0000 C   0  0  0  0  0  0  0  0  0  0  0  0
   -0.6524   -1.1299    0.0000 C   0  0  0  0  0  0  0  0  0  0  0  0
    0.0621   -0.7174    0.0000 C   0  0  0  0  0  0  0  0  0  0  0  0
   -1.3668   -0.7174    0.0000 C   0  0  0  0  0  0  0  0  0  0  0  0
   -1.3668    0.1076    0.0000 C   0  0  0  0  0  0  0  0  0  0  0  0
   -0.6524    0.5201    0.0000 O   0  0  0  0  0  0  0  0  0  0  0  0
   -1.3668    1.7576    0.0000 N   0  0  0  0  0  0  0  0  0  0  0  0
    0.0621    2.5826    0.0000 C   0  0  0  0  0  0  0  0  0  0  0  0
    0.7766    2.9951    0.0000 C   0  0  0  0  0  0  0  0  0  0  0  0
  1  2  1  0  0  0  0
  2  3  1  0  0  0  0
  4  3  1  0  0  0  0
  5  4  2  0  0  0  0
  6  5  1  0  0  0  0
  6  7  1  0  0  0  0
  8  7  1  0  0  0  0
  9  8  2  0  0  0  0
  9 10  1  0  0  0  0
 11 10  1  0  0  0  0
 12 11  2  0  0  0  0
 13 12  1  0  0  0  0
 13 14  1  0  0  0  0
 14 15  1  0  0  0  0
 15 16  1  0  0  0  0
 16 17  1  0  0  0  0
 17 18  1  0  0  0  0
 18 19  1  0  0  0  0
 19 20  1  0  0  0  0
 16 21  1  0  0  0  0
 21 22  1  0  0  0  0
 23 13  2  0  0  0  0
 24 23  1  0  0  0  0
 10 24  2  0  0  0  0
 24 25  1  0  0  0  0
 26  9  1  0  0  0  0
 27 26  2  0  0  0  0
 27 28  1  0  0  0  0
 29 28  2  0  0  0  0
 30 29  1  0  0  0  0
 31 30  2  0  0  0  0
 31 32  1  0  0  0  0
 32 33  1  0  0  0  0
 33 34  1  0  0  0  0
 34 35  1  0  0  0  0
 35 36  1  0  0  0  0
 36 37  1  0  0  0  0
 37 38  1  0  0  0  0
 34 39  1  0  0  0  0
 39 40  1  0  0  0  0
 41 31  1  0  0  0  0
 42 41  2  0  0  0  0
 28 42  1  0  0  0  0
 42 43  1  0  0  0  0
 44 27  1  0  0  0  0
  7 44  2  0  0  0  0
 45  6  2  0  0  0  0
 46 45  1  0  0  0  0
  3 46  2  0  0  0  0
M  END
> <RowID>
298

> <Original_SMILES>
COC1C=CC(=CC=1)C1N=C(N=C(N=1)C1=CC=C(C=C1O)OCC(CCCC)CC)C1C=CC(=CC=1O)OCC(CCCC)CC

> <Canonical_QSARr>
COC1C=CC(=CC=1)C1N=C(N=C(N=1)C1=CC=C(C=C1O)OCC(CCCC)CC)C1C=CC(=CC=1O)OCC(CCCC)CC

> <InChI_Code_QSARr>
InChI=1S/C38H49N3O5/c1-6-10-12-26(8-3)24-45-30-18-20-32(34(42)22-30)37-39-36(28-14-16-29(44-5)17-15-28)40-38(41-37)33-21-19-31(23-35(33)43)46-25-27(9-4)13-11-7-2/h14-23,26-27,42-43H,6-13,24-25H2,1-5H3

> <InChI Key_QSARr>
XVAMCHGMPYWHNL-UHFFFAOYSA-N

> <Salt_Solvent>


> <Salt_Solvent_ID>
0

> <Number of connected components>
1

$$$$
Molecule_299
  Mrv2316 01072400032D          

 10  9  0  0  0  0            999 V2000
    0.8250   -1.4289    0.0000 C   0  0  0  0  0  0  0  0  0  0  0  0
    1.2375   -2.1434    0.0000 C   0  0  0  0  0  0  0  0  0  0  0  0
    2.0625   -2.1434    0.0000 C   0  0  0  0  0  0  0  0  0  0  0  0
    2.4750   -2.8579    0.0000 C   0  0  0  0  0  0  0  0  0  0  0  0
    3.3000   -2.8579    0.0000 C   0  0  0  0  0  0  0  0  0  0  0  0
    3.7125   -3.5724    0.0000 C   0  0  0  0  0  0  0  0  0  0  0  0
    4.5375   -3.5724    0.0000 C   0  0  0  0  0  0  0  0  0  0  0  0
    3.7125   -2.1434    0.0000 C   0  0  0  0  0  0  0  0  0  0  0  0
    3.3000   -1.4289    0.0000 O   0  0  0  0  0  0  0  0  0  0  0  0
    4.5375   -2.1434    0.0000 O   0  0  0  0  0  0  0  0  0  0  0  0
  1  2  1  0  0  0  0
  2  3  1  0  0  0  0
  3  4  1  0  0  0  0
  4  5  1  0  0  0  0
  5  6  1  0  0  0  0
  6  7  1  0  0  0  0
  5  8  1  0  0  0  0
  8  9  1  0  0  0  0
  8 10  2  0  0  0  0
M  END
> <RowID>
299

> <Original_SMILES>
CCCCC(CC)C(O)=O

> <Canonical_QSARr>
CCCCC(CC)C(O)=O

> <InChI_Code_QSARr>
InChI=1S/C8H16O2/c1-3-5-6-7(4-2)8(9)10/h7H,3-6H2,1-2H3,(H,9,10)

> <InChI Key_QSARr>
OBETXYAYXDNJHR-UHFFFAOYSA-N

> <Salt_Solvent>


> <Salt_Solvent_ID>
0

> <Number of connected components>
1

$$$$
Molecule_300
  Mrv2316 01072400032D          

 28 30  0  0  0  0            999 V2000
    2.1434   -5.2152    0.0000 C   0  0  0  0  0  0  0  0  0  0  0  0
    1.4289   -4.8027    0.0000 C   0  0  0  0  0  0  0  0  0  0  0  0
    0.7145   -5.2152    0.0000 O   0  0  0  0  0  0  0  0  0  0  0  0
    1.4289   -3.9777    0.0000 C   0  0  0  0  0  0  0  0  0  0  0  0
    0.7145   -3.5652    0.0000 N   0  0  0  0  0  0  0  0  0  0  0  0
    0.7145   -2.7402    0.0000 N   0  0  0  0  0  0  0  0  0  0  0  0
   -0.0000   -2.3277    0.0000 C   0  0  0  0  0  0  0  0  0  0  0  0
   -0.0000   -1.5027    0.0000 C   0  0  0  0  0  0  0  0  0  0  0  0
   -0.7145   -1.0902    0.0000 C   0  0  0  0  0  0  0  0  0  0  0  0
   -1.4289   -1.5027    0.0000 C   0  0  0  0  0  0  0  0  0  0  0  0
   -1.4289   -2.3277    0.0000 C   0  0  0  0  0  0  0  0  0  0  0  0
   -0.7145   -2.7402    0.0000 C   0  0  0  0  0  0  0  0  0  0  0  0
   -0.7145   -3.5652    0.0000 C   0  0  0  0  0  0  0  0  0  0  0  0
   -0.0000   -3.9777    0.0000 O   0  0  0  0  0  0  0  0  0  0  0  0
   -1.4289   -3.9777    0.0000 O   0  0  0  0  0  0  0  0  0  0  0  0
    2.1434   -3.5652    0.0000 C   0  0  0  0  0  0  0  0  0  0  0  0
    2.1434   -2.7402    0.0000 O   0  0  0  0  0  0  0  0  0  0  0  0
    2.8579   -3.9777    0.0000 N   0  0  0  0  0  0  0  0  0  0  0  0
    3.5723   -3.5652    0.0000 C   0  0  0  0  0  0  0  0  0  0  0  0
    4.2868   -3.9777    0.0000 C   0  0  0  0  0  0  0  0  0  0  0  0
    5.0013   -3.5652    0.0000 C   0  0  0  0  0  0  0  0  0  0  0  0
    5.7859   -3.8201    0.0000 N   0  0  0  0  0  0  0  0  0  0  0  0
    6.2708   -3.1527    0.0000 C   0  0  0  0  0  0  0  0  0  0  0  0
    7.0958   -3.1527    0.0000 O   0  0  0  0  0  0  0  0  0  0  0  0
    5.7859   -2.4852    0.0000 N   0  0  0  0  0  0  0  0  0  0  0  0
    5.0013   -2.7402    0.0000 C   0  0  0  0  0  0  0  0  0  0  0  0
    4.2868   -2.3277    0.0000 C   0  0  0  0  0  0  0  0  0  0  0  0
    3.5723   -2.7402    0.0000 C   0  0  0  0  0  0  0  0  0  0  0  0
  1  2  1  0  0  0  0
  2  3  2  0  0  0  0
  2  4  1  0  0  0  0
  5  4  1  4  0  0  0
  5  6  2  0  0  0  0
  6  7  1  0  0  0  0
  8  7  2  0  0  0  0
  9  8  1  0  0  0  0
 10  9  2  0  0  0  0
 11 10  1  0  0  0  0
 12 11  2  0  0  0  0
  7 12  1  0  0  0  0
 12 13  1  0  0  0  0
 13 14  1  0  0  0  0
 13 15  2  0  0  0  0
  4 16  1  0  0  0  0
 16 17  2  0  0  0  0
 16 18  1  0  0  0  0
 18 19  1  0  0  0  0
 20 19  2  0  0  0  0
 21 20  1  0  0  0  0
 21 22  1  0  0  0  0
 22 23  1  0  0  0  0
 23 24  2  0  0  0  0
 23 25  1  0  0  0  0
 25 26  1  0  0  0  0
 26 21  2  0  0  0  0
 27 26  1  0  0  0  0
 28 27  2  0  0  0  0
 19 28  1  0  0  0  0
M  END
> <RowID>
300

> <Original_SMILES>
CC(=O)C(N=NC1=CC=CC=C1C(O)=O)C(=O)NC1=CC2NC(=O)NC=2C=C1

> <Canonical_QSARr>
CC(=O)C(N=NC1=CC=CC=C1C(O)=O)C(=O)NC1=CC2NC(=O)NC=2C=C1

> <InChI_Code_QSARr>
InChI=1S/C18H15N5O5/c1-9(24)15(23-22-12-5-3-2-4-11(12)17(26)27)16(25)19-10-6-7-13-14(8-10)21-18(28)20-13/h2-8,15H,1H3,(H,19,25)(H,26,27)(H2,20,21,28)

> <InChI Key_QSARr>
YMFWVWDPPIWORA-UHFFFAOYSA-N

> <Salt_Solvent>


> <Salt_Solvent_ID>
0

> <Number of connected components>
1

$$$$
Molecule_301
  Mrv2316 01072400032D          

 21 20  0  0  0  0            999 V2000
    2.5855    1.8414    0.0000 C   0  0  0  0  0  0  0  0  0  0  0  0
    2.9980    2.5559    0.0000 Si  0  0  0  0  0  0  0  0  0  0  0  0
    3.7125    2.1434    0.0000 C   0  0  0  0  0  0  0  0  0  0  0  0
    4.4270    2.5559    0.0000 C   0  0  0  0  0  0  0  0  0  0  0  0
    5.1414    2.1434    0.0000 C   0  0  0  0  0  0  0  0  0  0  0  0
    5.8559    2.5559    0.0000 O   0  0  0  0  0  0  0  0  0  0  0  0
    6.5704    2.1434    0.0000 C   0  0  0  0  0  0  0  0  0  0  0  0
    7.2849    2.5559    0.0000 C   0  0  0  0  0  0  0  0  0  0  0  0
    7.2849    3.3809    0.0000 O   0  0  0  0  0  0  0  0  0  0  0  0
    7.9993    2.1434    0.0000 C   0  0  0  0  0  0  0  0  0  0  0  0
    8.7138    2.5559    0.0000 O   0  0  0  0  0  0  0  0  0  0  0  0
    2.2836    2.9684    0.0000 O   0  0  0  0  0  0  0  0  0  0  0  0
    1.5691    2.5559    0.0000 Si  0  0  0  0  0  0  0  0  0  0  0  0
    0.8546    2.1434    0.0000 C   0  0  0  0  0  0  0  0  0  0  0  0
    1.1566    3.2704    0.0000 C   0  0  0  0  0  0  0  0  0  0  0  0
    1.9816    1.8414    0.0000 C   0  0  0  0  0  0  0  0  0  0  0  0
    3.4105    3.2704    0.0000 O   0  0  0  0  0  0  0  0  0  0  0  0
    2.9980    3.9848    0.0000 Si  0  0  0  0  0  0  0  0  0  0  0  0
    3.7125    4.3973    0.0000 C   0  0  0  0  0  0  0  0  0  0  0  0
    2.2836    3.5723    0.0000 C   0  0  0  0  0  0  0  0  0  0  0  0
    2.5855    4.6993    0.0000 C   0  0  0  0  0  0  0  0  0  0  0  0
  1  2  1  0  0  0  0
  2  3  1  0  0  0  0
  3  4  1  0  0  0  0
  4  5  1  0  0  0  0
  5  6  1  0  0  0  0
  6  7  1  0  0  0  0
  7  8  1  0  0  0  0
  8  9  1  0  0  0  0
  8 10  1  0  0  0  0
 10 11  1  0  0  0  0
  2 12  1  0  0  0  0
 12 13  1  0  0  0  0
 13 14  1  0  0  0  0
 13 15  1  0  0  0  0
 13 16  1  0  0  0  0
  2 17  1  0  0  0  0
 17 18  1  0  0  0  0
 18 19  1  0  0  0  0
 18 20  1  0  0  0  0
 18 21  1  0  0  0  0
M  END
> <RowID>
301

> <Original_SMILES>
C[Si](CCCOCC(O)CO)(O[Si](C)(C)C)O[Si](C)(C)C

> <Canonical_QSARr>
C[Si](CCCOCC(O)CO)(O[Si](C)(C)C)O[Si](C)(C)C

> <InChI_Code_QSARr>
InChI=1S/C13H34O5Si3/c1-19(2,3)17-21(7,18-20(4,5)6)10-8-9-16-12-13(15)11-14/h13-15H,8-12H2,1-7H3

> <InChI Key_QSARr>
WDZQDDRVJYALMM-UHFFFAOYSA-N

> <Salt_Solvent>


> <Salt_Solvent_ID>
0

> <Number of connected components>
1

$$$$
Molecule_302
  Mrv2316 01072400032D          

 41 43  0  0  0  0            999 V2000
    0.8786    0.1968    0.0000 C   0  0  0  0  0  0  0  0  0  0  0  0
    0.1642   -0.2157    0.0000 C   0  0  0  0  0  0  0  0  0  0  0  0
    0.1642   -1.0407    0.0000 C   0  0  0  0  0  0  0  0  0  0  0  0
   -0.5503   -1.4532    0.0000 C   0  0  0  0  0  0  0  0  0  0  0  0
   -1.2648   -1.0407    0.0000 O   0  0  0  0  0  0  0  0  0  0  0  0
   -1.9792   -1.4532    0.0000 P   0  0  0  0  0  0  0  0  0  0  0  0
   -2.6338   -0.9510    0.0000 O   0  0  0  0  0  0  0  0  0  0  0  0
   -3.4517   -1.0587    0.0000 C   0  0  0  0  0  0  0  0  0  0  0  0
   -3.7674   -0.2965    0.0000 C   0  0  0  0  0  0  0  0  0  0  0  0
   -4.5854   -0.1888    0.0000 C   0  0  0  0  0  0  0  0  0  0  0  0
   -5.0876   -0.8433    0.0000 C   0  0  0  0  0  0  0  0  0  0  0  0
   -4.7719   -1.6055    0.0000 C   0  0  0  0  0  0  0  0  0  0  0  0
   -3.9539   -1.7132    0.0000 C   0  0  0  0  0  0  0  0  0  0  0  0
   -3.8462   -2.5312    0.0000 C   0  0  0  0  0  0  0  0  0  0  0  0
   -3.1917   -3.0334    0.0000 C   0  0  0  0  0  0  0  0  0  0  0  0
   -3.5074   -3.7956    0.0000 C   0  0  0  0  0  0  0  0  0  0  0  0
   -3.0052   -4.4501    0.0000 C   0  0  0  0  0  0  0  0  0  0  0  0
   -2.1873   -4.3424    0.0000 C   0  0  0  0  0  0  0  0  0  0  0  0
   -1.8716   -3.5802    0.0000 C   0  0  0  0  0  0  0  0  0  0  0  0
   -1.0536   -3.4725    0.0000 C   0  0  0  0  0  0  0  0  0  0  0  0
   -0.2357   -3.3648    0.0000 C   0  0  0  0  0  0  0  0  0  0  0  0
   -1.1613   -2.6546    0.0000 C   0  0  0  0  0  0  0  0  0  0  0  0
   -0.9459   -4.2905    0.0000 C   0  0  0  0  0  0  0  0  0  0  0  0
   -2.3738   -2.9257    0.0000 C   0  0  0  0  0  0  0  0  0  0  0  0
   -1.8716   -2.2712    0.0000 O   0  0  0  0  0  0  0  0  0  0  0  0
   -3.3209   -5.2123    0.0000 C   0  0  0  0  0  0  0  0  0  0  0  0
   -3.6366   -5.9745    0.0000 C   0  0  0  0  0  0  0  0  0  0  0  0
   -2.5587   -5.5280    0.0000 C   0  0  0  0  0  0  0  0  0  0  0  0
   -4.0831   -4.8966    0.0000 C   0  0  0  0  0  0  0  0  0  0  0  0
   -5.9055   -0.7356    0.0000 C   0  0  0  0  0  0  0  0  0  0  0  0
   -6.7235   -0.6280    0.0000 C   0  0  0  0  0  0  0  0  0  0  0  0
   -6.0132   -1.5536    0.0000 C   0  0  0  0  0  0  0  0  0  0  0  0
   -5.7978    0.0823    0.0000 C   0  0  0  0  0  0  0  0  0  0  0  0
   -3.2652    0.3580    0.0000 C   0  0  0  0  0  0  0  0  0  0  0  0
   -2.7630    1.0125    0.0000 C   0  0  0  0  0  0  0  0  0  0  0  0
   -3.9197    0.8602    0.0000 C   0  0  0  0  0  0  0  0  0  0  0  0
   -2.6107   -0.1442    0.0000 C   0  0  0  0  0  0  0  0  0  0  0  0
    0.8786   -1.4532    0.0000 C   0  0  0  0  0  0  0  0  0  0  0  0
    1.5931   -1.0407    0.0000 C   0  0  0  0  0  0  0  0  0  0  0  0
    2.3076   -1.4532    0.0000 C   0  0  0  0  0  0  0  0  0  0  0  0
    3.0221   -1.0407    0.0000 C   0  0  0  0  0  0  0  0  0  0  0  0
  1  2  1  0  0  0  0
  2  3  1  0  0  0  0
  3  4  1  0  0  0  0
  4  5  1  0  0  0  0
  5  6  1  0  0  0  0
  7  6  1  0  0  0  0
  8  7  1  0  0  0  0
  8  9  1  0  0  0  0
  9 10  2  0  0  0  0
 10 11  1  0  0  0  0
 11 12  2  0  0  0  0
 12 13  1  0  0  0  0
 13  8  2  0  0  0  0
 14 13  1  0  0  0  0
 15 14  1  0  0  0  0
 15 16  1  0  0  0  0
 16 17  2  0  0  0  0
 17 18  1  0  0  0  0
 18 19  2  0  0  0  0
 19 20  1  0  0  0  0
 20 21  1  0  0  0  0
 20 22  1  0  0  0  0
 20 23  1  0  0  0  0
 19 24  1  0  0  0  0
 24 15  2  0  0  0  0
 25 24  1  0  0  0  0
  6 25  1  0  0  0  0
 17 26  1  0  0  0  0
 26 27  1  0  0  0  0
 26 28  1  0  0  0  0
 26 29  1  0  0  0  0
 11 30  1  0  0  0  0
 30 31  1  0  0  0  0
 30 32  1  0  0  0  0
 30 33  1  0  0  0  0
  9 34  1  0  0  0  0
 34 35  1  0  0  0  0
 34 36  1  0  0  0  0
 34 37  1  0  0  0  0
  3 38  1  0  0  0  0
 38 39  1  0  0  0  0
 39 40  1  0  0  0  0
 40 41  1  0  0  0  0
M  END
> <RowID>
302

> <Original_SMILES>
CCC(COP1OC2C(=CC(=CC=2CC2C=C(C=C(C=2O1)C(C)(C)C)C(C)(C)C)C(C)(C)C)C(C)(C)C)CCCC

> <Canonical_QSARr>
CCC(COP1OC2C(=CC(=CC=2CC2C=C(C=C(C=2O1)C(C)(C)C)C(C)(C)C)C(C)(C)C)C(C)(C)C)CCCC

> <InChI_Code_QSARr>
InChI=1S/C37H59O3P/c1-15-17-18-25(16-2)24-38-41-39-32-26(20-28(34(3,4)5)22-30(32)36(9,10)11)19-27-21-29(35(6,7)8)23-31(33(27)40-41)37(12,13)14/h20-23,25H,15-19,24H2,1-14H3

> <InChI Key_QSARr>
LOMJGCFEVIUZMW-UHFFFAOYSA-N

> <Salt_Solvent>


> <Salt_Solvent_ID>
0

> <Number of connected components>
1

$$$$
Molecule_303
  Mrv2316 01072400032D          

 27 28  0  0  0  0            999 V2000
   -2.8579   -6.4167    0.0000 C   0  0  0  0  0  0  0  0  0  0  0  0
   -2.1434   -6.0042    0.0000 C   0  0  0  0  0  0  0  0  0  0  0  0
   -1.4289   -6.4167    0.0000 C   0  0  0  0  0  0  0  0  0  0  0  0
   -0.7145   -6.0042    0.0000 C   0  0  0  0  0  0  0  0  0  0  0  0
    0.0000   -6.4167    0.0000 C   0  0  0  0  0  0  0  0  0  0  0  0
    0.7145   -6.0042    0.0000 C   0  0  0  0  0  0  0  0  0  0  0  0
    1.4289   -6.4167    0.0000 O   0  0  0  0  0  0  0  0  0  0  0  0
    2.1434   -6.0042    0.0000 C   0  0  0  0  0  0  0  0  0  0  0  0
    2.1434   -5.1792    0.0000 O   0  0  0  0  0  0  0  0  0  0  0  0
    2.8579   -6.4167    0.0000 C   0  0  0  0  0  0  0  0  0  0  0  0
    2.8579   -7.2417    0.0000 C   0  0  0  0  0  0  0  0  0  0  0  0
    2.8579   -8.0667    0.0000 N   0  0  0  0  0  0  0  0  0  0  0  0
    3.5724   -6.0042    0.0000 C   0  0  0  0  0  0  0  0  0  0  0  0
    3.5724   -5.1792    0.0000 C   0  0  0  0  0  0  0  0  0  0  0  0
    4.2868   -4.7667    0.0000 C   0  0  0  0  0  0  0  0  0  0  0  0
    4.2868   -3.9417    0.0000 C   0  0  0  0  0  0  0  0  0  0  0  0
    3.5724   -3.5292    0.0000 C   0  0  0  0  0  0  0  0  0  0  0  0
    2.8579   -3.9417    0.0000 C   0  0  0  0  0  0  0  0  0  0  0  0
    2.8579   -4.7667    0.0000 C   0  0  0  0  0  0  0  0  0  0  0  0
    4.2868   -6.4167    0.0000 C   0  0  0  0  0  0  0  0  0  0  0  0
    4.2868   -7.2417    0.0000 C   0  0  0  0  0  0  0  0  0  0  0  0
    5.0013   -7.6542    0.0000 C   0  0  0  0  0  0  0  0  0  0  0  0
    5.7158   -7.2417    0.0000 C   0  0  0  0  0  0  0  0  0  0  0  0
    5.7158   -6.4167    0.0000 C   0  0  0  0  0  0  0  0  0  0  0  0
    5.0013   -6.0042    0.0000 C   0  0  0  0  0  0  0  0  0  0  0  0
    0.0000   -7.2417    0.0000 C   0  0  0  0  0  0  0  0  0  0  0  0
    0.7145   -7.6542    0.0000 C   0  0  0  0  0  0  0  0  0  0  0  0
  1  2  1  0  0  0  0
  2  3  1  0  0  0  0
  3  4  1  0  0  0  0
  4  5  1  0  0  0  0
  5  6  1  0  0  0  0
  6  7  1  0  0  0  0
  7  8  1  0  0  0  0
  8  9  2  0  0  0  0
  8 10  1  0  0  0  0
 10 11  1  0  0  0  0
 11 12  3  0  0  0  0
 10 13  2  0  0  0  0
 13 14  1  0  0  0  0
 15 14  1  0  0  0  0
 16 15  2  0  0  0  0
 17 16  1  0  0  0  0
 18 17  2  0  0  0  0
 19 18  1  0  0  0  0
 14 19  2  0  0  0  0
 13 20  1  0  0  0  0
 21 20  1  0  0  0  0
 22 21  2  0  0  0  0
 23 22  1  0  0  0  0
 24 23  2  0  0  0  0
 25 24  1  0  0  0  0
 20 25  2  0  0  0  0
  5 26  1  0  0  0  0
 26 27  1  0  0  0  0
M  END
> <RowID>
303

> <Original_SMILES>
CCCCC(COC(=O)C(C#N)=C(C1C=CC=CC=1)C1C=CC=CC=1)CC

> <Canonical_QSARr>
CCCCC(COC(=O)C(C#N)=C(C1C=CC=CC=1)C1C=CC=CC=1)CC

> <InChI_Code_QSARr>
InChI=1S/C24H27NO2/c1-3-5-12-19(4-2)18-27-24(26)22(17-25)23(20-13-8-6-9-14-20)21-15-10-7-11-16-21/h6-11,13-16,19H,3-5,12,18H2,1-2H3

> <InChI Key_QSARr>
FMJSMJQBSVNSBF-UHFFFAOYSA-N

> <Salt_Solvent>


> <Salt_Solvent_ID>
0

> <Number of connected components>
1

$$$$
Molecule_304
  Mrv2316 01072400032D          

 27 27  0  0  0  0            999 V2000
    3.1225   -1.5583    0.0000 C   0  0  0  0  0  0  0  0  0  0  0  0
    2.4080   -1.1458    0.0000 C   0  0  0  0  0  0  0  0  0  0  0  0
    2.8205   -0.4314    0.0000 C   0  0  0  0  0  0  0  0  0  0  0  0
    1.9955   -1.8603    0.0000 C   0  0  0  0  0  0  0  0  0  0  0  0
    1.6936   -0.7333    0.0000 C   0  0  0  0  0  0  0  0  0  0  0  0
    0.9791   -1.1458    0.0000 O   0  0  0  0  0  0  0  0  0  0  0  0
    1.6936    0.0917    0.0000 N   0  0  0  0  0  0  0  0  0  0  0  0
    0.9791    0.5042    0.0000 C   0  0  0  0  0  0  0  0  0  0  0  0
    0.9791    1.3292    0.0000 C   0  0  0  0  0  0  0  0  0  0  0  0
    0.2646    1.7417    0.0000 C   0  0  0  0  0  0  0  0  0  0  0  0
    0.2646    2.5667    0.0000 N   0  0  0  0  0  0  0  0  0  0  0  0
    0.9791    2.9792    0.0000 C   0  0  0  0  0  0  0  0  0  0  0  0
    1.6936    2.5667    0.0000 O   0  0  0  0  0  0  0  0  0  0  0  0
    0.9791    3.8042    0.0000 C   0  0  0  0  0  0  0  0  0  0  0  0
    0.9791    4.6292    0.0000 C   0  0  0  0  0  0  0  0  0  0  0  0
    1.8041    3.8042    0.0000 C   0  0  0  0  0  0  0  0  0  0  0  0
    0.1541    3.8042    0.0000 C   0  0  0  0  0  0  0  0  0  0  0  0
   -0.4498    1.3292    0.0000 C   0  0  0  0  0  0  0  0  0  0  0  0
   -0.4498    0.5042    0.0000 C   0  0  0  0  0  0  0  0  0  0  0  0
   -1.1643    0.0917    0.0000 N   0  0  0  0  0  0  0  0  0  0  0  0
   -1.1643   -0.7333    0.0000 C   0  0  0  0  0  0  0  0  0  0  0  0
   -0.4498   -1.1458    0.0000 O   0  0  0  0  0  0  0  0  0  0  0  0
   -1.8788   -1.1458    0.0000 C   0  0  0  0  0  0  0  0  0  0  0  0
   -2.2913   -0.4314    0.0000 C   0  0  0  0  0  0  0  0  0  0  0  0
   -1.4663   -1.8603    0.0000 C   0  0  0  0  0  0  0  0  0  0  0  0
   -2.5933   -1.5583    0.0000 C   0  0  0  0  0  0  0  0  0  0  0  0
    0.2646    0.0917    0.0000 C   0  0  0  0  0  0  0  0  0  0  0  0
  1  2  1  0  0  0  0
  2  3  1  0  0  0  0
  2  4  1  0  0  0  0
  2  5  1  0  0  0  0
  5  6  2  0  0  0  0
  5  7  1  0  0  0  0
  7  8  1  0  0  0  0
  9  8  1  0  0  0  0
 10  9  2  0  0  0  0
 10 11  1  0  0  0  0
 11 12  1  0  0  0  0
 12 13  2  0  0  0  0
 12 14  1  0  0  0  0
 14 15  1  0  0  0  0
 14 16  1  0  0  0  0
 14 17  1  0  0  0  0
 18 10  1  0  0  0  0
 19 18  2  0  0  0  0
 19 20  1  0  0  0  0
 20 21  1  0  0  0  0
 21 22  2  0  0  0  0
 21 23  1  0  0  0  0
 23 24  1  0  0  0  0
 23 25  1  0  0  0  0
 23 26  1  0  0  0  0
 27 19  1  0  0  0  0
  8 27  2  0  0  0  0
M  END
> <RowID>
304

> <Original_SMILES>
CC(C)(C)C(=O)NC1C=C(C=C(C=1)NC(=O)C(C)(C)C)NC(=O)C(C)(C)C

> <Canonical_QSARr>
CC(C)(C)C(=O)NC1C=C(C=C(C=1)NC(=O)C(C)(C)C)NC(=O)C(C)(C)C

> <InChI_Code_QSARr>
InChI=1S/C21H33N3O3/c1-19(2,3)16(25)22-13-10-14(23-17(26)20(4,5)6)12-15(11-13)24-18(27)21(7,8)9/h10-12H,1-9H3,(H,22,25)(H,23,26)(H,24,27)

> <InChI Key_QSARr>
CPEULHAPWXMDDV-UHFFFAOYSA-N

> <Salt_Solvent>


> <Salt_Solvent_ID>
0

> <Number of connected components>
1

$$$$
Molecule_306
  Mrv2316 01072400032D          

 13 13  0  0  0  0            999 V2000
    0.4397   -2.2846    0.0000 C   0  0  0  0  0  0  0  0  0  0  0  0
    1.1541   -1.8721    0.0000 C   0  0  0  0  0  0  0  0  0  0  0  0
    1.8686   -2.2846    0.0000 C   0  0  0  0  0  0  0  0  0  0  0  0
    1.1541   -1.0471    0.0000 C   0  0  0  0  0  0  0  0  0  0  0  0
    1.8686   -0.6346    0.0000 C   0  0  0  0  0  0  0  0  0  0  0  0
    1.8686    0.1904    0.0000 C   0  0  0  0  0  0  0  0  0  0  0  0
    1.1541    0.6029    0.0000 C   0  0  0  0  0  0  0  0  0  0  0  0
    1.1541    1.4279    0.0000 C   0  0  0  0  0  0  0  0  0  0  0  0
    0.4397    1.8404    0.0000 C   0  0  0  0  0  0  0  0  0  0  0  0
    0.4397    2.6654    0.0000 C   0  0  0  0  0  0  0  0  0  0  0  0
   -0.2748    3.0779    0.0000 O   0  0  0  0  0  0  0  0  0  0  0  0
    0.4397    0.1904    0.0000 C   0  0  0  0  0  0  0  0  0  0  0  0
    0.4397   -0.6346    0.0000 C   0  0  0  0  0  0  0  0  0  0  0  0
  1  2  1  0  0  0  0
  2  3  1  0  0  0  0
  2  4  1  0  0  0  0
  5  4  1  0  0  0  0
  6  5  1  0  0  0  0
  7  6  2  0  0  0  0
  7  8  1  0  0  0  0
  8  9  1  0  0  0  0
  9 10  1  0  0  0  0
 10 11  2  0  0  0  0
 12  7  1  0  0  0  0
 13 12  1  0  0  0  0
  4 13  1  0  0  0  0
M  END
> <RowID>
306

> <Original_SMILES>
CC(C)C1CC=C(CC1)CCC=O

> <Canonical_QSARr>
CC(C)C1CC=C(CC1)CCC=O

> <InChI_Code_QSARr>
InChI=1S/C12H20O/c1-10(2)12-7-5-11(6-8-12)4-3-9-13/h5,9-10,12H,3-4,6-8H2,1-2H3

> <InChI Key_QSARr>
VZZSYXAVGYODQG-UHFFFAOYSA-N

> <Salt_Solvent>


> <Salt_Solvent_ID>
0

> <Number of connected components>
1

$$$$
Molecule_307
  Mrv2316 01072400032D          

 17 19  0  0  0  0            999 V2000
    2.6737    1.8695    0.0000 C   0  0  0  0  0  0  0  0  0  0  0  0
    2.1434    1.2375    0.0000 C   0  0  0  0  0  0  0  0  0  0  0  0
    1.6131    1.8695    0.0000 C   0  0  0  0  0  0  0  0  0  0  0  0
    2.8579    0.8250    0.0000 C   0  0  0  0  0  0  0  0  0  0  0  0
    3.5724    1.2375    0.0000 C   0  0  0  0  0  0  0  0  0  0  0  0
    4.2868    0.8250    0.0000 C   0  0  0  0  0  0  0  0  0  0  0  0
    4.2868    0.0000    0.0000 C   0  0  0  0  0  0  0  0  0  0  0  0
    3.5724   -0.4125    0.0000 C   0  0  0  0  0  0  0  0  0  0  0  0
    2.8579    0.0000    0.0000 C   0  0  0  0  0  0  0  0  0  0  0  0
    2.1434   -0.4125    0.0000 C   0  0  0  0  0  0  0  0  0  0  0  0
    2.1434   -1.2375    0.0000 O   0  0  0  0  0  0  0  0  0  0  0  0
    1.4289    0.0000    0.0000 C   0  0  0  0  0  0  0  0  0  0  0  0
    0.7145   -0.4125    0.0000 C   0  0  0  0  0  0  0  0  0  0  0  0
   -0.0000    0.0000    0.0000 C   0  0  0  0  0  0  0  0  0  0  0  0
   -0.0000    0.8250    0.0000 C   0  0  0  0  0  0  0  0  0  0  0  0
    0.7145    1.2375    0.0000 C   0  0  0  0  0  0  0  0  0  0  0  0
    1.4289    0.8250    0.0000 C   0  0  0  0  0  0  0  0  0  0  0  0
  1  2  1  0  0  0  0
  2  3  1  0  0  0  0
  4  2  1  0  0  0  0
  4  5  2  0  0  0  0
  5  6  1  0  0  0  0
  6  7  2  0  0  0  0
  7  8  1  0  0  0  0
  8  9  2  0  0  0  0
  9  4  1  0  0  0  0
 10  9  1  0  0  0  0
 10 11  2  0  0  0  0
 12 10  1  0  0  0  0
 12 13  2  0  0  0  0
 13 14  1  0  0  0  0
 14 15  2  0  0  0  0
 15 16  1  0  0  0  0
 16 17  2  0  0  0  0
  2 17  1  0  0  0  0
 17 12  1  0  0  0  0
M  END
> <RowID>
307

> <Original_SMILES>
CC1(C)C2=CC=CC=C2C(=O)C2=CC=CC=C12

> <Canonical_QSARr>
CC1(C)C2=CC=CC=C2C(=O)C2=CC=CC=C12

> <InChI_Code_QSARr>
InChI=1S/C16H14O/c1-16(2)13-9-5-3-7-11(13)15(17)12-8-4-6-10-14(12)16/h3-10H,1-2H3

> <InChI Key_QSARr>
GWFCYDIAPRIMLA-UHFFFAOYSA-N

> <Salt_Solvent>


> <Salt_Solvent_ID>
0

> <Number of connected components>
1

$$$$
Molecule_308
  Mrv2316 01072400032D          

 14 14  0  0  0  0            999 V2000
    2.1434   -2.0625    0.0000 C   0  0  0  0  0  0  0  0  0  0  0  0
    2.1434   -1.2375    0.0000 C   0  0  0  0  0  0  0  0  0  0  0  0
    1.4289   -0.8250    0.0000 C   0  0  0  0  0  0  0  0  0  0  0  0
    0.7145   -1.2375    0.0000 C   0  0  0  0  0  0  0  0  0  0  0  0
    0.0000   -0.8250    0.0000 C   0  0  0  0  0  0  0  0  0  0  0  0
    0.0000    0.0000    0.0000 C   0  0  0  0  0  0  0  0  0  0  0  0
   -0.7145    0.4125    0.0000 C   0  0  0  0  0  0  0  0  0  0  0  0
   -1.4289    0.0000    0.0000 C   0  0  0  0  0  0  0  0  0  0  0  0
   -1.4289   -0.8250    0.0000 C   0  0  0  0  0  0  0  0  0  0  0  0
   -0.7145   -1.2375    0.0000 C   0  0  0  0  0  0  0  0  0  0  0  0
    2.8579   -0.8250    0.0000 C   0  0  0  0  0  0  0  0  0  0  0  0
    3.5724   -1.2375    0.0000 C   0  0  0  0  0  0  0  0  0  0  0  0
    4.2868   -0.8250    0.0000 C   0  0  0  0  0  0  0  0  0  0  0  0
    3.5724   -2.0625    0.0000 O   0  0  0  0  0  0  0  0  0  0  0  0
  1  2  1  0  0  0  0
  2  3  1  0  0  0  0
  3  4  1  0  0  0  0
  4  5  1  0  0  0  0
  6  5  1  0  0  0  0
  7  6  2  0  0  0  0
  8  7  1  0  0  0  0
  9  8  2  0  0  0  0
 10  9  1  0  0  0  0
  5 10  2  0  0  0  0
  2 11  1  0  0  0  0
 11 12  1  0  0  0  0
 12 13  1  0  0  0  0
 12 14  1  0  0  0  0
M  END
> <RowID>
308

> <Original_SMILES>
CC(CCC1C=CC=CC=1)CC(C)O

> <Canonical_QSARr>
CC(CCC1C=CC=CC=1)CC(C)O

> <InChI_Code_QSARr>
InChI=1S/C13H20O/c1-11(10-12(2)14)8-9-13-6-4-3-5-7-13/h3-7,11-12,14H,8-10H2,1-2H3

> <InChI Key_QSARr>
FADMUUMOVSFZHH-UHFFFAOYSA-N

> <Salt_Solvent>


> <Salt_Solvent_ID>
0

> <Number of connected components>
1

$$$$
Molecule_309
  Mrv2316 01072400032D          

 22 21  0  0  0  0            999 V2000
    4.7123   -1.2728    0.0000 O   0  0  0  0  0  0  0  0  0  0  0  0
    5.2040   -0.6104    0.0000 C   0  0  0  0  0  0  0  0  0  0  0  0
    6.0236   -0.7050    0.0000 C   0  0  0  0  0  0  0  0  0  0  0  0
    6.5153   -0.0426    0.0000 N   0  0  0  0  0  0  0  0  0  0  0  0
    6.1875    0.7145    0.0000 C   0  0  0  0  0  0  0  0  0  0  0  0
    5.3679    0.8091    0.0000 C   0  0  0  0  0  0  0  0  0  0  0  0
    5.0401    1.5662    0.0000 O   0  0  0  0  0  0  0  0  0  0  0  0
    7.3349   -0.1372    0.0000 C   0  0  0  0  0  0  0  0  0  0  0  0
    7.6627   -0.8943    0.0000 O   0  0  0  0  0  0  0  0  0  0  0  0
    7.8266    0.5252    0.0000 C   0  0  0  0  0  0  0  0  0  0  0  0
    8.6462    0.4306    0.0000 C   0  0  0  0  0  0  0  0  0  0  0  0
    9.1379    1.0930    0.0000 C   0  0  0  0  0  0  0  0  0  0  0  0
    9.9574    0.9984    0.0000 C   0  0  0  0  0  0  0  0  0  0  0  0
   10.4492    1.6608    0.0000 C   0  0  0  0  0  0  0  0  0  0  0  0
   10.1214    2.4179    0.0000 O   0  0  0  0  0  0  0  0  0  0  0  0
   11.2687    1.5662    0.0000 N   0  0  0  0  0  0  0  0  0  0  0  0
   11.7605    2.2286    0.0000 C   0  0  0  0  0  0  0  0  0  0  0  0
   12.5800    2.1340    0.0000 C   0  0  0  0  0  0  0  0  0  0  0  0
   13.0718    2.7964    0.0000 O   0  0  0  0  0  0  0  0  0  0  0  0
   11.5966    0.8091    0.0000 C   0  0  0  0  0  0  0  0  0  0  0  0
   12.4161    0.7145    0.0000 C   0  0  0  0  0  0  0  0  0  0  0  0
   12.7439   -0.0426    0.0000 O   0  0  0  0  0  0  0  0  0  0  0  0
  1  2  1  0  0  0  0
  2  3  1  0  0  0  0
  3  4  1  0  0  0  0
  4  5  1  0  0  0  0
  5  6  1  0  0  0  0
  6  7  1  0  0  0  0
  4  8  1  0  0  0  0
  8  9  2  0  0  0  0
  8 10  1  0  0  0  0
 10 11  1  0  0  0  0
 11 12  1  0  0  0  0
 12 13  1  0  0  0  0
 13 14  1  0  0  0  0
 14 15  2  0  0  0  0
 14 16  1  0  0  0  0
 16 17  1  0  0  0  0
 17 18  1  0  0  0  0
 18 19  1  0  0  0  0
 16 20  1  0  0  0  0
 20 21  1  0  0  0  0
 21 22  1  0  0  0  0
M  END
> <RowID>
309

> <Original_SMILES>
OCCN(CCO)C(=O)CCCCC(=O)N(CCO)CCO

> <Canonical_QSARr>
OCCN(CCO)C(=O)CCCCC(=O)N(CCO)CCO

> <InChI_Code_QSARr>
InChI=1S/C14H28N2O6/c17-9-5-15(6-10-18)13(21)3-1-2-4-14(22)16(7-11-19)8-12-20/h17-20H,1-12H2

> <InChI Key_QSARr>
OKRNLSUTBJUVKA-UHFFFAOYSA-N

> <Salt_Solvent>


> <Salt_Solvent_ID>
0

> <Number of connected components>
1

$$$$
Molecule_310
  Mrv2316 01072400032D          

 21 22  0  0  0  0            999 V2000
    0.3020   -1.9520    0.0000 C   0  0  0  0  0  0  0  0  0  0  0  0
    0.7145   -1.2375    0.0000 C   0  0  0  0  0  0  0  0  0  0  0  0
    1.1270   -0.5230    0.0000 C   0  0  0  0  0  0  0  0  0  0  0  0
    0.0000   -0.8250    0.0000 C   0  0  0  0  0  0  0  0  0  0  0  0
    0.0000    0.0000    0.0000 C   0  0  0  0  0  0  0  0  0  0  0  0
   -0.7145    0.4125    0.0000 C   0  0  0  0  0  0  0  0  0  0  0  0
   -0.7145    1.2375    0.0000 C   0  0  0  0  0  0  0  0  0  0  0  0
   -1.4289    0.0000    0.0000 C   0  0  0  0  0  0  0  0  0  0  0  0
   -2.1434    0.4125    0.0000 O   0  0  0  0  0  0  0  0  0  0  0  0
   -1.4289   -0.8250    0.0000 C   0  0  0  0  0  0  0  0  0  0  0  0
   -2.1434   -1.2375    0.0000 C   0  0  0  0  0  0  0  0  0  0  0  0
   -0.7145   -1.2375    0.0000 C   0  0  0  0  0  0  0  0  0  0  0  0
    1.4289   -1.6500    0.0000 C   0  0  0  0  0  0  0  0  0  0  0  0
    1.4289   -2.4750    0.0000 C   0  0  0  0  0  0  0  0  0  0  0  0
    2.1434   -2.8875    0.0000 C   0  0  0  0  0  0  0  0  0  0  0  0
    2.1434   -3.7125    0.0000 C   0  0  0  0  0  0  0  0  0  0  0  0
    2.8579   -2.4750    0.0000 C   0  0  0  0  0  0  0  0  0  0  0  0
    3.5724   -2.8875    0.0000 O   0  0  0  0  0  0  0  0  0  0  0  0
    2.8579   -1.6500    0.0000 C   0  0  0  0  0  0  0  0  0  0  0  0
    3.5724   -1.2375    0.0000 C   0  0  0  0  0  0  0  0  0  0  0  0
    2.1434   -1.2375    0.0000 C   0  0  0  0  0  0  0  0  0  0  0  0
  1  2  1  0  0  0  0
  2  3  1  0  0  0  0
  2  4  1  0  0  0  0
  5  4  2  0  0  0  0
  6  5  1  0  0  0  0
  6  7  1  0  0  0  0
  8  6  2  0  0  0  0
  8  9  1  0  0  0  0
 10  8  1  0  0  0  0
 10 11  1  0  0  0  0
 12 10  2  0  0  0  0
  4 12  1  0  0  0  0
  2 13  1  0  0  0  0
 14 13  2  0  0  0  0
 15 14  1  0  0  0  0
 15 16  1  0  0  0  0
 17 15  2  0  0  0  0
 17 18  1  0  0  0  0
 19 17  1  0  0  0  0
 19 20  1  0  0  0  0
 21 19  2  0  0  0  0
 13 21  1  0  0  0  0
M  END
> <RowID>
310

> <Original_SMILES>
CC(C)(C1=CC(C)=C(O)C(C)=C1)C1=CC(C)=C(O)C(C)=C1

> <Canonical_QSARr>
CC(C)(C1=CC(C)=C(O)C(C)=C1)C1=CC(C)=C(O)C(C)=C1

> <InChI_Code_QSARr>
InChI=1S/C19H24O2/c1-11-7-15(8-12(2)17(11)20)19(5,6)16-9-13(3)18(21)14(4)10-16/h7-10,20-21H,1-6H3

> <InChI Key_QSARr>
ODJUOZPKKHIEOZ-UHFFFAOYSA-N

> <Salt_Solvent>


> <Salt_Solvent_ID>
0

> <Number of connected components>
1

$$$$
Molecule_311
  Mrv2316 01072400032D          

 20 19  0  0  0  0            999 V2000
    5.3328   -2.5854    0.0000 O   0  0  0  0  0  0  0  0  0  0  0  0
    4.5226   -2.7413    0.0000 C   0  0  0  0  0  0  0  0  0  0  0  0
    4.2526   -3.5209    0.0000 O   0  0  0  0  0  0  0  0  0  0  0  0
    3.9825   -2.1177    0.0000 C   0  0  0  0  0  0  0  0  0  0  0  0
    4.2526   -1.3381    0.0000 N   0  0  0  0  0  0  0  0  0  0  0  0
    3.7125   -0.7145    0.0000 C   0  0  0  0  0  0  0  0  0  0  0  0
    2.9024   -0.8704    0.0000 C   0  0  0  0  0  0  0  0  0  0  0  0
    2.6323   -1.6499    0.0000 O   0  0  0  0  0  0  0  0  0  0  0  0
    2.3623   -0.2467    0.0000 O   0  0  0  0  0  0  0  0  0  0  0  0
    5.0627   -1.1822    0.0000 C   0  0  0  0  0  0  0  0  0  0  0  0
    5.3328   -0.4027    0.0000 C   0  0  0  0  0  0  0  0  0  0  0  0
    6.1429   -0.2467    0.0000 N   0  0  0  0  0  0  0  0  0  0  0  0
    6.4129    0.5328    0.0000 C   0  0  0  0  0  0  0  0  0  0  0  0
    5.8729    1.1564    0.0000 C   0  0  0  0  0  0  0  0  0  0  0  0
    6.1429    1.9360    0.0000 O   0  0  0  0  0  0  0  0  0  0  0  0
    5.0627    1.0005    0.0000 O   0  0  0  0  0  0  0  0  0  0  0  0
    6.6830   -0.8704    0.0000 C   0  0  0  0  0  0  0  0  0  0  0  0
    7.4931   -0.7145    0.0000 C   0  0  0  0  0  0  0  0  0  0  0  0
    7.7632    0.0651    0.0000 O   0  0  0  0  0  0  0  0  0  0  0  0
    8.0332   -1.3381    0.0000 O   0  0  0  0  0  0  0  0  0  0  0  0
  1  2  1  0  0  0  0
  2  3  2  0  0  0  0
  2  4  1  0  0  0  0
  4  5  1  0  0  0  0
  5  6  1  0  0  0  0
  6  7  1  0  0  0  0
  7  8  1  0  0  0  0
  7  9  2  0  0  0  0
  5 10  1  0  0  0  0
 10 11  1  0  0  0  0
 11 12  1  0  0  0  0
 12 13  1  0  0  0  0
 13 14  1  0  0  0  0
 14 15  1  0  0  0  0
 14 16  2  0  0  0  0
 12 17  1  0  0  0  0
 17 18  1  0  0  0  0
 18 19  1  0  0  0  0
 18 20  2  0  0  0  0
M  END
> <RowID>
311

> <Original_SMILES>
[K+].[K+].[Zn+2].[O-]C(=O)CN(CC([O-])=O)CCN(CC([O-])=O)CC([O-])=O

> <Canonical_QSARr>
OC(=O)CN(CC(O)=O)CCN(CC(O)=O)CC(O)=O

> <InChI_Code_QSARr>
InChI=1S/C10H16N2O8/c13-7(14)3-11(4-8(15)16)1-2-12(5-9(17)18)6-10(19)20/h1-6H2,(H,13,14)(H,15,16)(H,17,18)(H,19,20)

> <InChI Key_QSARr>
KCXVZYZYPLLWCC-UHFFFAOYSA-N

> <Salt_Solvent>
[K+].[Zn+2]

> <Salt_Solvent_ID>
245

> <Number of connected components>
4

$$$$
Molecule_312
  Mrv2316 01072400032D          

 17 17  0  0  0  0            999 V2000
   -1.9753   -2.5478    0.0000 C   0  0  0  0  0  0  0  0  0  0  0  0
   -1.2608   -2.9603    0.0000 C   0  0  0  0  0  0  0  0  0  0  0  0
   -0.5464   -2.5478    0.0000 C   0  0  0  0  0  0  0  0  0  0  0  0
    0.1681   -2.9603    0.0000 C   0  0  0  0  0  0  0  0  0  0  0  0
    0.8826   -2.5478    0.0000 C   0  0  0  0  0  0  0  0  0  0  0  0
    1.5971   -2.9603    0.0000 C   0  0  0  0  0  0  0  0  0  0  0  0
    1.5971   -3.7853    0.0000 C   0  0  0  0  0  0  0  0  0  0  0  0
    2.3115   -2.5478    0.0000 O   0  0  0  0  0  0  0  0  0  0  0  0
    3.0260   -2.9603    0.0000 C   0  0  0  0  0  0  0  0  0  0  0  0
    3.0260   -3.7853    0.0000 O   0  0  0  0  0  0  0  0  0  0  0  0
    3.7405   -2.5478    0.0000 C   0  0  0  0  0  0  0  0  0  0  0  0
    4.4549   -2.9603    0.0000 C   0  0  0  0  0  0  0  0  0  0  0  0
    5.1694   -2.5478    0.0000 C   0  0  0  0  0  0  0  0  0  0  0  0
    5.1694   -1.7228    0.0000 C   0  0  0  0  0  0  0  0  0  0  0  0
    4.4549   -1.3103    0.0000 C   0  0  0  0  0  0  0  0  0  0  0  0
    3.7405   -1.7228    0.0000 C   0  0  0  0  0  0  0  0  0  0  0  0
    3.0260   -1.3103    0.0000 O   0  0  0  0  0  0  0  0  0  0  0  0
  1  2  1  0  0  0  0
  3  2  1  4  0  0  0
  3  4  2  0  0  0  0
  4  5  1  0  0  0  0
  5  6  1  0  0  0  0
  6  7  1  0  0  0  0
  6  8  1  0  0  0  0
  8  9  1  0  0  0  0
  9 10  2  0  0  0  0
  9 11  1  0  0  0  0
 12 11  1  0  0  0  0
 13 12  2  0  0  0  0
 14 13  1  0  0  0  0
 15 14  2  0  0  0  0
 16 15  1  0  0  0  0
 11 16  2  0  0  0  0
 16 17  1  0  0  0  0
M  END
> <RowID>
312

> <Original_SMILES>
CCC=CCC(C)OC(=O)C1C=CC=CC=1O

> <Canonical_QSARr>
CCC=CCC(C)OC(=O)C1C=CC=CC=1O

> <InChI_Code_QSARr>
InChI=1S/C14H18O3/c1-3-4-5-8-11(2)17-14(16)12-9-6-7-10-13(12)15/h4-7,9-11,15H,3,8H2,1-2H3

> <InChI Key_QSARr>
AWFJMMINHWORIB-UHFFFAOYSA-N

> <Salt_Solvent>


> <Salt_Solvent_ID>
0

> <Number of connected components>
1

$$$$
Molecule_313
  Mrv2316 01072400032D          

  9  8  0  0  0  0            999 V2000
    1.0461    1.4289    0.0000 C   0  0  0  0  0  0  0  0  0  0  0  0
    1.7605    1.8414    0.0000 C   0  0  0  0  0  0  0  0  0  0  0  0
    2.4750    1.4289    0.0000 C   0  0  0  0  0  0  0  0  0  0  0  0
    3.1895    1.8414    0.0000 C   0  0  0  0  0  0  0  0  0  0  0  0
    3.9039    1.4289    0.0000 C   0  0  0  0  0  0  0  0  0  0  0  0
    4.6184    1.8414    0.0000 C   0  0  0  0  0  0  0  0  0  0  0  0
    4.6184    2.6664    0.0000 O   0  0  0  0  0  0  0  0  0  0  0  0
    5.3329    1.4289    0.0000 O   0  0  0  0  0  0  0  0  0  0  0  0
    6.0474    1.8414    0.0000 C   0  0  0  0  0  0  0  0  0  0  0  0
  1  2  1  0  0  0  0
  2  3  1  0  0  0  0
  3  4  1  0  0  0  0
  4  5  1  0  0  0  0
  5  6  1  0  0  0  0
  6  7  2  0  0  0  0
  6  8  1  0  0  0  0
  8  9  1  0  0  0  0
M  END
> <RowID>
313

> <Original_SMILES>
CCCCCC(=O)OC

> <Canonical_QSARr>
CCCCCC(=O)OC

> <InChI_Code_QSARr>
InChI=1S/C7H14O2/c1-3-4-5-6-7(8)9-2/h3-6H2,1-2H3

> <InChI Key_QSARr>
NUKZAGXMHTUAFE-UHFFFAOYSA-N

> <Salt_Solvent>


> <Salt_Solvent_ID>
0

> <Number of connected components>
1

$$$$
Molecule_314
  Mrv2316 01072400032D          

 27 26  0  0  0  0            999 V2000
   -3.9552    4.3164    0.0000 F   0  0  0  0  0  0  0  0  0  0  0  0
   -3.2408    3.9039    0.0000 C   0  0  0  0  0  0  0  0  0  0  0  0
   -3.6533    3.1895    0.0000 F   0  0  0  0  0  0  0  0  0  0  0  0
   -2.8283    4.6184    0.0000 F   0  0  0  0  0  0  0  0  0  0  0  0
   -2.5263    3.4914    0.0000 C   0  0  0  0  0  0  0  0  0  0  0  0
   -2.9388    2.7770    0.0000 F   0  0  0  0  0  0  0  0  0  0  0  0
   -2.1138    4.2059    0.0000 F   0  0  0  0  0  0  0  0  0  0  0  0
   -1.8118    3.0789    0.0000 C   0  0  0  0  0  0  0  0  0  0  0  0
   -2.2243    2.3645    0.0000 F   0  0  0  0  0  0  0  0  0  0  0  0
   -1.3993    3.7934    0.0000 F   0  0  0  0  0  0  0  0  0  0  0  0
   -1.0974    2.6664    0.0000 C   0  0  0  0  0  0  0  0  0  0  0  0
   -1.5099    1.9520    0.0000 F   0  0  0  0  0  0  0  0  0  0  0  0
   -0.6849    3.3809    0.0000 F   0  0  0  0  0  0  0  0  0  0  0  0
   -0.3829    2.2539    0.0000 C   0  0  0  0  0  0  0  0  0  0  0  0
   -0.7954    1.5395    0.0000 F   0  0  0  0  0  0  0  0  0  0  0  0
    0.0296    2.9684    0.0000 F   0  0  0  0  0  0  0  0  0  0  0  0
    0.3316    1.8414    0.0000 C   0  0  0  0  0  0  0  0  0  0  0  0
   -0.0809    1.1270    0.0000 F   0  0  0  0  0  0  0  0  0  0  0  0
    0.7441    2.5559    0.0000 F   0  0  0  0  0  0  0  0  0  0  0  0
    1.0461    1.4289    0.0000 C   0  0  0  0  0  0  0  0  0  0  0  0
    1.7605    1.8414    0.0000 C   0  0  0  0  0  0  0  0  0  0  0  0
    2.4750    1.4289    0.0000 S   0  0  0  0  0  0  0  0  0  0  0  0
    3.1895    1.8414    0.0000 C   0  0  0  0  0  0  0  0  0  0  0  0
    3.9039    1.4289    0.0000 C   0  0  0  0  0  0  0  0  0  0  0  0
    4.6184    1.8414    0.0000 C   0  0  0  0  0  0  0  0  0  0  0  0
    5.3329    1.4289    0.0000 C   0  0  0  0  0  0  0  0  0  0  0  0
    6.0474    1.8414    0.0000 S   0  0  0  0  0  0  0  0  0  0  0  0
  1  2  1  0  0  0  0
  2  3  1  0  0  0  0
  2  4  1  0  0  0  0
  2  5  1  0  0  0  0
  5  6  1  0  0  0  0
  5  7  1  0  0  0  0
  5  8  1  0  0  0  0
  8  9  1  0  0  0  0
  8 10  1  0  0  0  0
  8 11  1  0  0  0  0
 11 12  1  0  0  0  0
 11 13  1  0  0  0  0
 11 14  1  0  0  0  0
 14 15  1  0  0  0  0
 14 16  1  0  0  0  0
 14 17  1  0  0  0  0
 17 18  1  0  0  0  0
 17 19  1  0  0  0  0
 17 20  1  0  0  0  0
 20 21  1  0  0  0  0
 21 22  1  0  0  0  0
 22 23  1  0  0  0  0
 23 24  1  0  0  0  0
 24 25  1  0  0  0  0
 25 26  1  0  0  0  0
 26 27  1  0  0  0  0
M  END
> <RowID>
314

> <Original_SMILES>
FC(F)(F)C(F)(F)C(F)(F)C(F)(F)C(F)(F)C(F)(F)CCSCCCCS

> <Canonical_QSARr>
FC(F)(F)C(F)(F)C(F)(F)C(F)(F)C(F)(F)C(F)(F)CCSCCCCS

> <InChI_Code_QSARr>
InChI=1S/C12H13F13S2/c13-7(14,3-6-27-5-2-1-4-26)8(15,16)9(17,18)10(19,20)11(21,22)12(23,24)25/h26H,1-6H2

> <InChI Key_QSARr>
IWRNCVRDDHBTAD-UHFFFAOYSA-N

> <Salt_Solvent>


> <Salt_Solvent_ID>
0

> <Number of connected components>
1

$$$$
Molecule_316
  Mrv2316 01072400032D          

 18 18  0  0  0  0            999 V2000
    2.1434   -5.6833    0.0000 C   0  0  0  0  0  0  0  0  0  0  0  0
    2.8579   -6.0958    0.0000 C   0  0  0  0  0  0  0  0  0  0  0  0
    3.5724   -5.6833    0.0000 C   0  0  0  0  0  0  0  0  0  0  0  0
    4.2868   -6.0958    0.0000 C   0  0  0  0  0  0  0  0  0  0  0  0
    5.0013   -5.6833    0.0000 C   0  0  0  0  0  0  0  0  0  0  0  0
    5.7158   -6.0958    0.0000 C   0  0  0  0  0  0  0  0  0  0  0  0
    6.4302   -5.6833    0.0000 O   0  0  0  0  0  0  0  0  0  0  0  0
    7.1447   -6.0958    0.0000 C   0  0  0  0  0  0  0  0  0  0  0  0
    7.1447   -6.9208    0.0000 O   0  0  0  0  0  0  0  0  0  0  0  0
    7.8592   -5.6833    0.0000 C   0  0  0  0  0  0  0  0  0  0  0  0
    8.5737   -6.0958    0.0000 C   0  0  0  0  0  0  0  0  0  0  0  0
    9.2881   -5.6833    0.0000 C   0  0  0  0  0  0  0  0  0  0  0  0
    9.2881   -4.8583    0.0000 C   0  0  0  0  0  0  0  0  0  0  0  0
    8.5737   -4.4458    0.0000 C   0  0  0  0  0  0  0  0  0  0  0  0
    7.8592   -4.8583    0.0000 C   0  0  0  0  0  0  0  0  0  0  0  0
    7.1447   -4.4458    0.0000 O   0  0  0  0  0  0  0  0  0  0  0  0
    5.0013   -4.8583    0.0000 C   0  0  0  0  0  0  0  0  0  0  0  0
    5.7158   -4.4458    0.0000 C   0  0  0  0  0  0  0  0  0  0  0  0
  1  2  1  0  0  0  0
  2  3  1  0  0  0  0
  3  4  1  0  0  0  0
  4  5  1  0  0  0  0
  5  6  1  0  0  0  0
  6  7  1  0  0  0  0
  7  8  1  0  0  0  0
  8  9  2  0  0  0  0
  8 10  1  0  0  0  0
 11 10  1  0  0  0  0
 12 11  2  0  0  0  0
 13 12  1  0  0  0  0
 14 13  2  0  0  0  0
 15 14  1  0  0  0  0
 10 15  2  0  0  0  0
 15 16  1  0  0  0  0
  5 17  1  0  0  0  0
 17 18  1  0  0  0  0
M  END
> <RowID>
316

> <Original_SMILES>
CCCCC(COC(=O)C1C=CC=CC=1O)CC

> <Canonical_QSARr>
CCCCC(COC(=O)C1C=CC=CC=1O)CC

> <InChI_Code_QSARr>
InChI=1S/C15H22O3/c1-3-5-8-12(4-2)11-18-15(17)13-9-6-7-10-14(13)16/h6-7,9-10,12,16H,3-5,8,11H2,1-2H3

> <InChI Key_QSARr>
FMRHJJZUHUTGKE-UHFFFAOYSA-N

> <Salt_Solvent>


> <Salt_Solvent_ID>
0

> <Number of connected components>
1

$$$$
Molecule_317
  Mrv2316 01072400032D          

 11 11  0  0  0  0            999 V2000
    0.0059   -1.5764    0.0000 O   0  0  0  0  0  0  0  0  0  0  0  0
   -0.3297   -0.8227    0.0000 C   0  0  0  0  0  0  0  0  0  0  0  0
   -1.1501   -0.7365    0.0000 O   0  0  0  0  0  0  0  0  0  0  0  0
    0.1553   -0.1553    0.0000 C   0  0  0  0  0  0  0  0  0  0  0  0
    0.9803   -0.1553    0.0000 C   0  0  0  0  0  0  0  0  0  0  0  0
    1.2352    0.6294    0.0000 C   0  0  0  0  0  0  0  0  0  0  0  0
    0.5678    1.1143    0.0000 C   0  0  0  0  0  0  0  0  0  0  0  0
    0.5678    1.9393    0.0000 C   0  0  0  0  0  0  0  0  0  0  0  0
   -0.1467    2.3518    0.0000 O   0  0  0  0  0  0  0  0  0  0  0  0
    1.2822    2.3518    0.0000 O   0  0  0  0  0  0  0  0  0  0  0  0
   -0.0997    0.6294    0.0000 O   0  0  0  0  0  0  0  0  0  0  0  0
  1  2  1  0  0  0  0
  2  3  2  0  0  0  0
  2  4  1  0  0  0  0
  5  4  2  0  0  0  0
  6  5  1  0  0  0  0
  7  6  2  0  0  0  0
  7  8  1  0  0  0  0
  8  9  1  0  0  0  0
  8 10  2  0  0  0  0
 11  7  1  0  0  0  0
  4 11  1  0  0  0  0
M  END
> <RowID>
317

> <Original_SMILES>
OC(=O)C1=CC=C(O1)C(O)=O

> <Canonical_QSARr>
OC(=O)C1=CC=C(O1)C(O)=O

> <InChI_Code_QSARr>
InChI=1S/C6H4O5/c7-5(8)3-1-2-4(11-3)6(9)10/h1-2H,(H,7,8)(H,9,10)

> <InChI Key_QSARr>
CHTHALBTIRVDBM-UHFFFAOYSA-N

> <Salt_Solvent>


> <Salt_Solvent_ID>
0

> <Number of connected components>
1

$$$$
Molecule_318
  Mrv2316 01072400032D          

  9  8  0  0  0  0            999 V2000
    1.2375   -0.1105    0.0000 C   0  0  0  0  0  0  0  0  0  0  0  0
    1.2375    0.7145    0.0000 C   0  0  0  0  0  0  0  0  0  0  0  0
    0.5230    1.1270    0.0000 C   0  0  0  0  0  0  0  0  0  0  0  0
   -0.1914    0.7145    0.0000 C   0  0  0  0  0  0  0  0  0  0  0  0
    1.9520    1.1270    0.0000 C   0  0  0  0  0  0  0  0  0  0  0  0
    1.9520    1.9520    0.0000 N   0  0  0  0  0  0  0  0  0  0  0  0
    2.6664    0.7145    0.0000 C   0  0  0  0  0  0  0  0  0  0  0  0
    3.3809    1.1270    0.0000 O   0  0  0  0  0  0  0  0  0  0  0  0
    2.6664   -0.1105    0.0000 O   0  0  0  0  0  0  0  0  0  0  0  0
  1  2  1  0  0  0  0
  2  3  1  0  0  0  0
  3  4  1  0  0  0  0
  2  5  1  0  0  0  0
  5  6  1  0  0  0  0
  5  7  1  0  0  0  0
  7  8  1  0  0  0  0
  7  9  2  0  0  0  0
M  END
> <RowID>
318

> <Original_SMILES>
CC(CC)C(N)C(O)=O

> <Canonical_QSARr>
CC(CC)C(N)C(O)=O

> <InChI_Code_QSARr>
InChI=1S/C6H13NO2/c1-3-4(2)5(7)6(8)9/h4-5H,3,7H2,1-2H3,(H,8,9)

> <InChI Key_QSARr>
AGPKZVBTJJNPAG-UHFFFAOYSA-N

> <Salt_Solvent>


> <Salt_Solvent_ID>
0

> <Number of connected components>
1

$$$$
Molecule_319
  Mrv2316 01072400032D          

 21 24  0  0  0  0            999 V2000
    3.5330   -0.8989    0.0000 C   0  0  0  0  0  0  0  0  0  0  0  0
    3.8928   -1.6412    0.0000 C   0  0  0  0  0  0  0  0  0  0  0  0
    4.4247   -1.0105    0.0000 C   0  0  0  0  0  0  0  0  0  0  0  0
    5.2368   -1.1557    0.0000 C   0  0  0  0  0  0  0  0  0  0  0  0
    5.5171   -1.9317    0.0000 C   0  0  0  0  0  0  0  0  0  0  0  0
    4.9853   -2.5624    0.0000 C   0  0  0  0  0  0  0  0  0  0  0  0
    5.2656   -3.3383    0.0000 C   0  0  0  0  0  0  0  0  0  0  0  0
    6.0777   -3.4835    0.0000 C   0  0  0  0  0  0  0  0  0  0  0  0
    6.6095   -2.8528    0.0000 C   0  0  0  0  0  0  0  0  0  0  0  0
    7.4216   -2.9980    0.0000 C   0  0  0  0  0  0  0  0  0  0  0  0
    7.9534   -2.3673    0.0000 C   0  0  0  0  0  0  0  0  0  0  0  0
    8.7656   -2.5125    0.0000 O   0  0  0  0  0  0  0  0  0  0  0  0
    7.6731   -1.5914    0.0000 C   0  0  0  0  0  0  0  0  0  0  0  0
    6.8610   -1.4462    0.0000 C   0  0  0  0  0  0  0  0  0  0  0  0
    6.3292   -2.0769    0.0000 C   0  0  0  0  0  0  0  0  0  0  0  0
    6.0489   -1.3010    0.0000 C   0  0  0  0  0  0  0  0  0  0  0  0
    4.1731   -2.4172    0.0000 C   0  0  0  0  0  0  0  0  0  0  0  0
    3.5218   -2.9235    0.0000 C   0  0  0  0  0  0  0  0  0  0  0  0
    2.8390   -2.4605    0.0000 C   0  0  0  0  0  0  0  0  0  0  0  0
    3.0683   -1.6680    0.0000 C   0  0  0  0  0  0  0  0  0  0  0  0
    2.5619   -1.0167    0.0000 O   0  0  0  0  0  0  0  0  0  0  0  0
  1  2  1  0  0  0  0
  3  2  1  0  0  0  0
  4  3  1  0  0  0  0
  5  4  1  0  0  0  0
  5  6  1  0  0  0  0
  6  7  1  0  0  0  0
  7  8  1  0  0  0  0
  8  9  1  0  0  0  0
 10  9  2  0  0  0  0
 11 10  1  0  0  0  0
 11 12  2  0  0  0  0
 13 11  1  0  0  0  0
 14 13  1  0  0  0  0
 15 14  1  0  0  0  0
  9 15  1  0  0  0  0
 15  5  1  0  0  0  0
 15 16  1  0  0  0  0
 17  6  1  0  0  0  0
 17  2  1  0  0  0  0
 18 17  1  0  0  0  0
 19 18  1  0  0  0  0
 20 19  1  0  0  0  0
  2 20  1  0  0  0  0
 20 21  1  0  0  0  0
M  END
> <RowID>
319

> <Original_SMILES>
CC12CCC3C(CCC4=CC(=O)CCC43C)C1CCC2O

> <Canonical_QSARr>
CC12CCC3C(CCC4=CC(=O)CCC43C)C1CCC2O

> <InChI_Code_QSARr>
InChI=1S/C19H28O2/c1-18-9-7-13(20)11-12(18)3-4-14-15-5-6-17(21)19(15,2)10-8-16(14)18/h11,14-17,21H,3-10H2,1-2H3

> <InChI Key_QSARr>
MUMGGOZAMZWBJJ-UHFFFAOYSA-N

> <Salt_Solvent>


> <Salt_Solvent_ID>
0

> <Number of connected components>
1

$$$$
Molecule_320
  Mrv2316 01072400032D          

 18 17  0  0  0  0            999 V2000
    5.8729    3.2090    0.0000 O   0  0  0  0  0  0  0  0  0  0  0  0
    5.3328    2.5854    0.0000 C   0  0  0  0  0  0  0  0  0  0  0  0
    4.5226    2.7413    0.0000 O   0  0  0  0  0  0  0  0  0  0  0  0
    5.6028    1.8058    0.0000 C   0  0  0  0  0  0  0  0  0  0  0  0
    5.0627    1.1822    0.0000 C   0  0  0  0  0  0  0  0  0  0  0  0
    4.2526    1.3381    0.0000 C   0  0  0  0  0  0  0  0  0  0  0  0
    3.7125    0.7145    0.0000 C   0  0  0  0  0  0  0  0  0  0  0  0
    2.9024    0.8704    0.0000 O   0  0  0  0  0  0  0  0  0  0  0  0
    3.9825   -0.0651    0.0000 O   0  0  0  0  0  0  0  0  0  0  0  0
    6.4129    1.6499    0.0000 N   0  0  0  0  0  0  0  0  0  0  0  0
    6.9530    2.2736    0.0000 C   0  0  0  0  0  0  0  0  0  0  0  0
    7.7632    2.1177    0.0000 C   0  0  0  0  0  0  0  0  0  0  0  0
    8.3033    2.7413    0.0000 O   0  0  0  0  0  0  0  0  0  0  0  0
    8.0332    1.3381    0.0000 O   0  0  0  0  0  0  0  0  0  0  0  0
    6.6830    0.8704    0.0000 C   0  0  0  0  0  0  0  0  0  0  0  0
    7.4931    0.7145    0.0000 C   0  0  0  0  0  0  0  0  0  0  0  0
    8.2966    0.9016    0.0000 O   0  0  0  0  0  0  0  0  0  0  0  0
    7.7632   -0.0651    0.0000 O   0  0  0  0  0  0  0  0  0  0  0  0
  1  2  1  0  0  0  0
  2  3  2  0  0  0  0
  2  4  1  0  0  0  0
  4  5  1  0  0  0  0
  5  6  1  0  0  0  0
  6  7  1  0  0  0  0
  7  8  1  0  0  0  0
  7  9  2  0  0  0  0
  4 10  1  0  0  0  0
 10 11  1  0  0  0  0
 11 12  1  0  0  0  0
 12 13  1  0  0  0  0
 12 14  2  0  0  0  0
 10 15  1  0  0  0  0
 15 16  1  0  0  0  0
 16 17  1  0  0  0  0
 16 18  2  0  0  0  0
M  END
> <RowID>
320

> <Original_SMILES>
[Na+].[Na+].[Na+].[Na+].[O-]C(=O)CCC(C([O-])=O)N(CC([O-])=O)CC([O-])=O

> <Canonical_QSARr>
OC(=O)CCC(C(O)=O)N(CC(O)=O)CC(O)=O

> <InChI_Code_QSARr>
InChI=1S/C9H13NO8/c11-6(12)2-1-5(9(17)18)10(3-7(13)14)4-8(15)16/h5H,1-4H2,(H,11,12)(H,13,14)(H,15,16)(H,17,18)

> <InChI Key_QSARr>
VCVKIIDXVWEWSZ-UHFFFAOYSA-N

> <Salt_Solvent>
[Na+]

> <Salt_Solvent_ID>
110

> <Number of connected components>
5

$$$$
Molecule_321
  Mrv2316 01072400032D          

 17 17  0  0  0  0            999 V2000
    3.0260    0.7279    0.0000 O   0  5  0  0  0  0  0  0  0  0  0  0
    2.3115    1.1404    0.0000 N   0  3  0  0  0  0  0  0  0  0  0  0
    2.3115    1.9654    0.0000 O   0  0  0  0  0  0  0  0  0  0  0  0
    1.5970    0.7279    0.0000 C   0  0  0  0  0  0  0  0  0  0  0  0
    0.8826    1.1404    0.0000 C   0  0  0  0  0  0  0  0  0  0  0  0
    0.8826    1.9654    0.0000 O   0  0  0  0  0  0  0  0  0  0  0  0
    0.1681    0.7279    0.0000 C   0  0  0  0  0  0  0  0  0  0  0  0
   -0.5464    1.1404    0.0000 N   0  3  0  0  0  0  0  0  0  0  0  0
   -1.2608    0.7279    0.0000 O   0  5  0  0  0  0  0  0  0  0  0  0
   -0.5464    1.9654    0.0000 O   0  0  0  0  0  0  0  0  0  0  0  0
    0.1681   -0.0971    0.0000 C   0  0  0  0  0  0  0  0  0  0  0  0
   -0.5464   -0.5096    0.0000 O   0  0  0  0  0  0  0  0  0  0  0  0
    0.8826   -0.5096    0.0000 C   0  0  0  0  0  0  0  0  0  0  0  0
    0.8826   -1.3346    0.0000 N   0  3  0  0  0  0  0  0  0  0  0  0
    1.5970   -1.7471    0.0000 O   0  5  0  0  0  0  0  0  0  0  0  0
    0.1681   -1.7471    0.0000 O   0  0  0  0  0  0  0  0  0  0  0  0
    1.5970   -0.0971    0.0000 C   0  0  0  0  0  0  0  0  0  0  0  0
  1  2  1  0  0  0  0
  2  3  2  0  0  0  0
  2  4  1  0  0  0  0
  5  4  1  0  0  0  0
  5  6  1  0  0  0  0
  7  5  2  0  0  0  0
  7  8  1  0  0  0  0
  8  9  1  0  0  0  0
  8 10  2  0  0  0  0
 11  7  1  0  0  0  0
 11 12  1  0  0  0  0
 13 11  2  0  0  0  0
 13 14  1  0  0  0  0
 14 15  1  0  0  0  0
 14 16  2  0  0  0  0
 17 13  1  0  0  0  0
  4 17  2  0  0  0  0
M  CHG  6   1  -1   2   1   8   1   9  -1  14   1  15  -1
M  END
> <RowID>
321

> <Original_SMILES>
[Pb+2].[O-]C1=C(C=C(C([O-])=C1[N+]([O-])=O)[N+]([O-])=O)[N+]([O-])=O

> <Canonical_QSARr>
[O-][N+](=O)C1=C(O)C(=CC(=C1O)[N+]([O-])=O)[N+]([O-])=O

> <InChI_Code_QSARr>
InChI=1S/C6H3N3O8/c10-5-2(7(12)13)1-3(8(14)15)6(11)4(5)9(16)17/h1,10-11H

> <InChI Key_QSARr>
IXHMHWIBCIYOAZ-UHFFFAOYSA-N

> <Salt_Solvent>
[Pb+2]

> <Salt_Solvent_ID>
820

> <Number of connected components>
2

$$$$
Molecule_322
  Mrv2316 01072400032D          

 30 29  0  0  0  0            999 V2000
   12.7579    0.7658    0.0000 C   0  0  0  0  0  0  0  0  0  0  0  0
   13.4723    1.1783    0.0000 C   0  0  0  0  0  0  0  0  0  0  0  0
   13.4723    2.0033    0.0000 C   0  0  0  0  0  0  0  0  0  0  0  0
   14.1868    2.4158    0.0000 C   0  0  0  0  0  0  0  0  0  0  0  0
   14.1868    3.2408    0.0000 C   0  0  0  0  0  0  0  0  0  0  0  0
   14.9013    3.6533    0.0000 C   0  0  0  0  0  0  0  0  0  0  0  0
   14.9013    4.4783    0.0000 C   0  0  0  0  0  0  0  0  0  0  0  0
   14.1868    4.8908    0.0000 O   0  0  0  0  0  0  0  0  0  0  0  0
   15.6158    4.8908    0.0000 O   0  0  0  0  0  0  0  0  0  0  0  0
   15.6158    5.7158    0.0000 C   0  0  0  0  0  0  0  0  0  0  0  0
   14.9013    6.1283    0.0000 C   0  0  0  0  0  0  0  0  0  0  0  0
   14.1868    5.7158    0.0000 O   0  0  0  0  0  0  0  0  0  0  0  0
   13.4723    6.1283    0.0000 C   0  0  0  0  0  0  0  0  0  0  0  0
   13.4723    6.9533    0.0000 O   0  0  0  0  0  0  0  0  0  0  0  0
   12.7579    5.7158    0.0000 C   0  0  0  0  0  0  0  0  0  0  0  0
   12.0434    6.1283    0.0000 C   0  0  0  0  0  0  0  0  0  0  0  0
   11.3289    5.7158    0.0000 C   0  0  0  0  0  0  0  0  0  0  0  0
   10.6145    6.1283    0.0000 C   0  0  0  0  0  0  0  0  0  0  0  0
    9.9000    5.7158    0.0000 C   0  0  0  0  0  0  0  0  0  0  0  0
    9.1855    6.1283    0.0000 C   0  0  0  0  0  0  0  0  0  0  0  0
   16.3302    6.1283    0.0000 C   0  0  0  0  0  0  0  0  0  0  0  0
   17.0447    5.7158    0.0000 O   0  0  0  0  0  0  0  0  0  0  0  0
   17.7592    6.1283    0.0000 C   0  0  0  0  0  0  0  0  0  0  0  0
   17.7592    6.9533    0.0000 O   0  0  0  0  0  0  0  0  0  0  0  0
   18.4736    5.7158    0.0000 C   0  0  0  0  0  0  0  0  0  0  0  0
   19.1881    6.1283    0.0000 C   0  0  0  0  0  0  0  0  0  0  0  0
   19.9026    5.7158    0.0000 C   0  0  0  0  0  0  0  0  0  0  0  0
   20.6171    6.1283    0.0000 C   0  0  0  0  0  0  0  0  0  0  0  0
   21.3315    5.7158    0.0000 C   0  0  0  0  0  0  0  0  0  0  0  0
   22.0460    6.1283    0.0000 C   0  0  0  0  0  0  0  0  0  0  0  0
  1  2  1  0  0  0  0
  2  3  1  0  0  0  0
  3  4  1  0  0  0  0
  4  5  1  0  0  0  0
  5  6  1  0  0  0  0
  6  7  1  0  0  0  0
  7  8  2  0  0  0  0
  7  9  1  0  0  0  0
  9 10  1  0  0  0  0
 10 11  1  0  0  0  0
 11 12  1  0  0  0  0
 12 13  1  0  0  0  0
 13 14  2  0  0  0  0
 13 15  1  0  0  0  0
 15 16  1  0  0  0  0
 16 17  1  0  0  0  0
 17 18  1  0  0  0  0
 18 19  1  0  0  0  0
 19 20  1  0  0  0  0
 10 21  1  0  0  0  0
 21 22  1  0  0  0  0
 22 23  1  0  0  0  0
 23 24  2  0  0  0  0
 23 25  1  0  0  0  0
 25 26  1  0  0  0  0
 26 27  1  0  0  0  0
 27 28  1  0  0  0  0
 28 29  1  0  0  0  0
 29 30  1  0  0  0  0
M  END
> <RowID>
322

> <Original_SMILES>
CCCCCCC(=O)OC(COC(=O)CCCCCC)COC(=O)CCCCCC

> <Canonical_QSARr>
CCCCCCC(=O)OC(COC(=O)CCCCCC)COC(=O)CCCCCC

> <InChI_Code_QSARr>
InChI=1S/C24H44O6/c1-4-7-10-13-16-22(25)28-19-21(30-24(27)18-15-12-9-6-3)20-29-23(26)17-14-11-8-5-2/h21H,4-20H2,1-3H3

> <InChI Key_QSARr>
PJHKBYALYHRYSK-UHFFFAOYSA-N

> <Salt_Solvent>


> <Salt_Solvent_ID>
0

> <Number of connected components>
1

$$$$
Molecule_323
  Mrv2316 01072400032D          

 40 42  0  0  0  0            999 V2000
    2.2192   -0.1697    0.0000 C   0  0  0  0  0  0  0  0  0  0  0  0
    1.4067   -0.3130    0.0000 C   0  0  0  0  0  0  0  0  0  0  0  0
    1.1246   -1.0883    0.0000 C   0  0  0  0  0  0  0  0  0  0  0  0
    0.3121   -1.2315    0.0000 C   0  0  0  0  0  0  0  0  0  0  0  0
    0.0299   -2.0068    0.0000 O   0  0  0  0  0  0  0  0  0  0  0  0
   -0.7825   -2.1500    0.0000 C   0  0  0  0  0  0  0  0  0  0  0  0
   -1.3128   -1.5180    0.0000 O   0  0  0  0  0  0  0  0  0  0  0  0
   -2.1253   -1.6613    0.0000 C   0  0  0  0  0  0  0  0  0  0  0  0
   -2.6556   -1.0293    0.0000 C   0  0  0  0  0  0  0  0  0  0  0  0
   -3.4681   -1.1726    0.0000 O   0  0  0  0  0  0  0  0  0  0  0  0
   -2.4075   -2.4365    0.0000 C   0  0  0  0  0  0  0  0  0  0  0  0
   -3.2199   -2.5798    0.0000 O   0  0  0  0  0  0  0  0  0  0  0  0
   -1.8772   -3.0685    0.0000 C   0  0  0  0  0  0  0  0  0  0  0  0
   -2.1593   -3.8438    0.0000 O   0  0  0  0  0  0  0  0  0  0  0  0
   -1.0647   -2.9253    0.0000 C   0  0  0  0  0  0  0  0  0  0  0  0
   -0.5344   -3.5572    0.0000 O   0  0  0  0  0  0  0  0  0  0  0  0
   -0.2182   -0.5995    0.0000 C   0  0  0  0  0  0  0  0  0  0  0  0
    0.0640    0.1757    0.0000 C   0  0  0  0  0  0  0  0  0  0  0  0
   -0.4663    0.8077    0.0000 C   0  0  0  0  0  0  0  0  0  0  0  0
   -0.1842    1.5830    0.0000 C   0  0  0  0  0  0  0  0  0  0  0  0
    0.6283    1.7262    0.0000 C   0  0  0  0  0  0  0  0  0  0  0  0
    0.3461    2.5015    0.0000 C   0  0  0  0  0  0  0  0  0  0  0  0
    1.3428    2.1387    0.0000 C   0  0  0  0  0  0  0  0  0  0  0  0
    2.0572    1.7262    0.0000 C   0  0  0  0  0  0  0  0  0  0  0  0
    2.7717    2.1387    0.0000 C   0  0  0  0  0  0  0  0  0  0  0  0
    3.4862    1.7262    0.0000 C   0  0  0  0  0  0  0  0  0  0  0  0
    3.4862    0.9012    0.0000 C   0  0  0  0  0  0  0  0  0  0  0  0
    4.2007    2.1387    0.0000 C   0  0  0  0  0  0  0  0  0  0  0  0
    4.9151    1.7262    0.0000 C   0  0  0  0  0  0  0  0  0  0  0  0
    5.6296    2.1387    0.0000 C   0  0  0  0  0  0  0  0  0  0  0  0
    6.3441    1.7262    0.0000 C   0  0  0  0  0  0  0  0  0  0  0  0
    6.3441    0.9012    0.0000 C   0  0  0  0  0  0  0  0  0  0  0  0
    7.0585    2.1387    0.0000 C   0  0  0  0  0  0  0  0  0  0  0  0
    7.7730    1.7262    0.0000 C   0  0  0  0  0  0  0  0  0  0  0  0
    8.4875    2.1387    0.0000 C   0  0  0  0  0  0  0  0  0  0  0  0
    9.2020    1.7262    0.0000 C   0  0  0  0  0  0  0  0  0  0  0  0
    9.9164    2.1387    0.0000 C   0  0  0  0  0  0  0  0  0  0  0  0
    9.2020    0.9012    0.0000 C   0  0  0  0  0  0  0  0  0  0  0  0
    1.1586    1.0942    0.0000 O   0  0  0  0  0  0  0  0  0  0  0  0
    0.8764    0.3190    0.0000 C   0  0  0  0  0  0  0  0  0  0  0  0
  1  2  1  0  0  0  0
  3  2  1  0  0  0  0
  4  3  2  0  0  0  0
  4  5  1  0  0  0  0
  5  6  1  0  0  0  0
  7  6  1  0  0  0  0
  8  7  1  0  0  0  0
  8  9  1  0  0  0  0
  9 10  1  0  0  0  0
 11  8  1  0  0  0  0
 11 12  1  0  0  0  0
 13 11  1  0  0  0  0
 13 14  1  0  0  0  0
 15 13  1  0  0  0  0
  6 15  1  0  0  0  0
 15 16  1  0  0  0  0
 17  4  1  0  0  0  0
 18 17  2  0  0  0  0
 18 19  1  0  0  0  0
 19 20  1  0  0  0  0
 20 21  1  0  0  0  0
 21 22  1  0  0  0  0
 21 23  1  0  0  0  0
 23 24  1  0  0  0  0
 24 25  1  0  0  0  0
 25 26  1  0  0  0  0
 26 27  1  0  0  0  0
 26 28  1  0  0  0  0
 28 29  1  0  0  0  0
 29 30  1  0  0  0  0
 30 31  1  0  0  0  0
 31 32  1  0  0  0  0
 31 33  1  0  0  0  0
 33 34  1  0  0  0  0
 34 35  1  0  0  0  0
 35 36  1  0  0  0  0
 36 37  1  0  0  0  0
 36 38  1  0  0  0  0
 21 39  1  0  0  0  0
 39 40  1  0  0  0  0
  2 40  2  0  0  0  0
 40 18  1  0  0  0  0
M  END
> <RowID>
323

> <Original_SMILES>
CC1C=C(C=C2CCC(C)(CCCC(C)CCCC(C)CCCC(C)C)OC=12)OC1OC(CO)C(O)C(O)C1O

> <Canonical_QSARr>
CC1C=C(C=C2CCC(C)(CCCC(C)CCCC(C)CCCC(C)C)OC=12)OC1OC(CO)C(O)C(O)C1O

> <InChI_Code_QSARr>
InChI=1S/C33H56O7/c1-21(2)10-7-11-22(3)12-8-13-23(4)14-9-16-33(6)17-15-25-19-26(18-24(5)31(25)40-33)38-32-30(37)29(36)28(35)27(20-34)39-32/h18-19,21-23,27-30,32,34-37H,7-17,20H2,1-6H3

> <InChI Key_QSARr>
VDKKOBGKVRANCM-UHFFFAOYSA-N

> <Salt_Solvent>


> <Salt_Solvent_ID>
0

> <Number of connected components>
1

$$$$
Molecule_325
  Mrv2316 01072400032D          

 33 34  0  0  0  0            999 V2000
    4.8714   -8.8125    0.0000 O   0  0  0  0  0  0  0  0  0  0  0  0
    4.1569   -8.4000    0.0000 S   0  0  0  0  0  0  0  0  0  0  0  0
    4.5694   -7.6855    0.0000 O   0  0  0  0  0  0  0  0  0  0  0  0
    3.7444   -9.1145    0.0000 O   0  0  0  0  0  0  0  0  0  0  0  0
    3.4425   -7.9875    0.0000 C   0  0  0  0  0  0  0  0  0  0  0  0
    3.4425   -7.1625    0.0000 C   0  0  0  0  0  0  0  0  0  0  0  0
    2.7280   -6.7500    0.0000 C   0  0  0  0  0  0  0  0  0  0  0  0
    2.7280   -5.9250    0.0000 N   0  0  0  0  0  0  0  0  0  0  0  0
    2.0135   -5.5125    0.0000 N   0  0  0  0  0  0  0  0  0  0  0  0
    2.0135   -4.6875    0.0000 C   0  0  0  0  0  0  0  0  0  0  0  0
    2.7280   -4.2750    0.0000 C   0  0  0  0  0  0  0  0  0  0  0  0
    2.7280   -3.4500    0.0000 C   0  0  0  0  0  0  0  0  0  0  0  0
    2.0135   -3.0375    0.0000 C   0  0  0  0  0  0  0  0  0  0  0  0
    1.2990   -3.4500    0.0000 C   0  0  0  0  0  0  0  0  0  0  0  0
    0.5846   -3.0375    0.0000 S   0  0  0  0  0  0  0  0  0  0  0  0
   -0.1299   -2.6250    0.0000 C   0  0  0  0  0  0  0  0  0  0  0  0
   -0.8444   -3.0375    0.0000 C   0  0  0  0  0  0  0  0  0  0  0  0
   -1.5588   -2.6250    0.0000 O   0  0  0  0  0  0  0  0  0  0  0  0
   -2.2733   -3.0375    0.0000 S   0  0  0  0  0  0  0  0  0  0  0  0
   -2.9878   -3.4500    0.0000 O   0  0  0  0  0  0  0  0  0  0  0  0
   -2.6858   -2.3230    0.0000 O   0  0  0  0  0  0  0  0  0  0  0  0
   -1.8608   -3.7520    0.0000 O   0  0  0  0  0  0  0  0  0  0  0  0
    0.9971   -2.3230    0.0000 O   0  0  0  0  0  0  0  0  0  0  0  0
    0.1721   -3.7520    0.0000 O   0  0  0  0  0  0  0  0  0  0  0  0
    1.2990   -4.2750    0.0000 C   0  0  0  0  0  0  0  0  0  0  0  0
    2.0135   -7.1625    0.0000 C   0  0  0  0  0  0  0  0  0  0  0  0
    1.2990   -6.7500    0.0000 N   0  0  0  0  0  0  0  0  0  0  0  0
    0.5846   -7.1625    0.0000 C   0  0  0  0  0  0  0  0  0  0  0  0
    0.5846   -7.9875    0.0000 C   0  0  0  0  0  0  0  0  0  0  0  0
   -0.1299   -6.7500    0.0000 O   0  0  0  0  0  0  0  0  0  0  0  0
    2.0135   -7.9875    0.0000 C   0  0  0  0  0  0  0  0  0  0  0  0
    2.7280   -8.4000    0.0000 C   0  0  0  0  0  0  0  0  0  0  0  0
    2.7280   -9.2250    0.0000 N   0  0  0  0  0  0  0  0  0  0  0  0
  1  2  1  0  0  0  0
  2  3  2  0  0  0  0
  2  4  2  0  0  0  0
  2  5  1  0  0  0  0
  6  5  2  0  0  0  0
  7  6  1  0  0  0  0
  8  7  1  4  0  0  0
  8  9  2  0  0  0  0
  9 10  1  0  0  0  0
 11 10  2  0  0  0  0
 12 11  1  0  0  0  0
 13 12  2  0  0  0  0
 14 13  1  0  0  0  0
 14 15  1  0  0  0  0
 15 16  1  0  0  0  0
 16 17  1  0  0  0  0
 17 18  1  0  0  0  0
 18 19  1  0  0  0  0
 19 20  1  0  0  0  0
 19 21  2  0  0  0  0
 19 22  2  0  0  0  0
 15 23  2  0  0  0  0
 15 24  2  0  0  0  0
 25 14  2  0  0  0  0
 10 25  1  0  0  0  0
 26  7  2  0  0  0  0
 26 27  1  0  0  0  0
 27 28  1  0  0  0  0
 28 29  1  0  0  0  0
 28 30  2  0  0  0  0
 31 26  1  0  0  0  0
 32 31  2  0  0  0  0
  5 32  1  0  0  0  0
 32 33  1  0  0  0  0
M  END
> <RowID>
325

> <Original_SMILES>
[Na+].[Na+].CC(=O)NC1C=C(N)C(=CC=1N=NC1C=C(C=CC=1)S(=O)(=O)CCOS([O-])(=O)=O)S([O-])(=O)=O

> <Canonical_QSARr>
CC(=O)NC1C=C(N)C(=CC=1N=NC1C=C(C=CC=1)S(=O)(=O)CCOS(O)(=O)=O)S(O)(=O)=O

> <InChI_Code_QSARr>
InChI=1S/C16H18N4O10S3/c1-10(21)18-14-8-13(17)16(32(24,25)26)9-15(14)20-19-11-3-2-4-12(7-11)31(22,23)6-5-30-33(27,28)29/h2-4,7-9H,5-6,17H2,1H3,(H,18,21)(H,24,25,26)(H,27,28,29)

> <InChI Key_QSARr>
RXUWBDGLARRBLF-UHFFFAOYSA-N

> <Salt_Solvent>
[Na+]

> <Salt_Solvent_ID>
110

> <Number of connected components>
3

$$$$
Molecule_326
  Mrv2316 01072400032D          

 10 10  0  0  0  0            999 V2000
    1.2860    3.3000    0.0000 C   0  0  0  0  0  0  0  0  0  0  0  0
    1.2860    2.4750    0.0000 O   0  0  0  0  0  0  0  0  0  0  0  0
    0.5716    2.0625    0.0000 C   0  0  0  0  0  0  0  0  0  0  0  0
   -0.1429    2.4750    0.0000 O   0  0  0  0  0  0  0  0  0  0  0  0
    0.5716    1.2375    0.0000 C   0  0  0  0  0  0  0  0  0  0  0  0
   -0.1429    0.8250    0.0000 C   0  0  0  0  0  0  0  0  0  0  0  0
   -0.1429   -0.0000    0.0000 C   0  0  0  0  0  0  0  0  0  0  0  0
    0.5716   -0.4125    0.0000 C   0  0  0  0  0  0  0  0  0  0  0  0
    1.2860    0.0000    0.0000 C   0  0  0  0  0  0  0  0  0  0  0  0
    1.2860    0.8250    0.0000 C   0  0  0  0  0  0  0  0  0  0  0  0
  1  2  1  0  0  0  0
  2  3  1  0  0  0  0
  3  4  2  0  0  0  0
  3  5  1  0  0  0  0
  6  5  1  0  0  0  0
  7  6  2  0  0  0  0
  8  7  1  0  0  0  0
  9  8  2  0  0  0  0
 10  9  1  0  0  0  0
  5 10  2  0  0  0  0
M  END
> <RowID>
326

> <Original_SMILES>
COC(=O)C1C=CC=CC=1

> <Canonical_QSARr>
COC(=O)C1C=CC=CC=1

> <InChI_Code_QSARr>
InChI=1S/C8H8O2/c1-10-8(9)7-5-3-2-4-6-7/h2-6H,1H3

> <InChI Key_QSARr>
QPJVMBTYPHYUOC-UHFFFAOYSA-N

> <Salt_Solvent>


> <Salt_Solvent_ID>
0

> <Number of connected components>
1

$$$$
Molecule_327
  Mrv2316 01072400032D          

 12 12  0  0  0  0            999 V2000
   -0.0000   -1.2375    0.0000 O   0  0  0  0  0  0  0  0  0  0  0  0
   -0.0000   -0.4125    0.0000 C   0  0  0  0  0  0  0  0  0  0  0  0
   -0.7145    0.0000    0.0000 O   0  0  0  0  0  0  0  0  0  0  0  0
    0.7145    0.0000    0.0000 C   0  0  0  0  0  0  0  0  0  0  0  0
    0.7145    0.8250    0.0000 C   0  0  0  0  0  0  0  0  0  0  0  0
    1.4289    1.2375    0.0000 C   0  0  0  0  0  0  0  0  0  0  0  0
    1.4289    2.0625    0.0000 C   0  0  0  0  0  0  0  0  0  0  0  0
    0.7145    2.4750    0.0000 C   0  0  0  0  0  0  0  0  0  0  0  0
    0.7145    3.3000    0.0000 Cl  0  0  0  0  0  0  0  0  0  0  0  0
   -0.0000    2.0625    0.0000 C   0  0  0  0  0  0  0  0  0  0  0  0
   -0.0000    1.2375    0.0000 C   0  0  0  0  0  0  0  0  0  0  0  0
   -0.7145    0.8250    0.0000 Cl  0  0  0  0  0  0  0  0  0  0  0  0
  1  2  1  0  0  0  0
  2  3  2  0  0  0  0
  2  4  1  0  0  0  0
  4  5  1  0  0  0  0
  6  5  1  0  0  0  0
  7  6  2  0  0  0  0
  8  7  1  0  0  0  0
  8  9  1  0  0  0  0
 10  8  2  0  0  0  0
 11 10  1  0  0  0  0
  5 11  2  0  0  0  0
 11 12  1  0  0  0  0
M  END
> <RowID>
327

> <Original_SMILES>
OC(=O)CC1C=CC(Cl)=CC=1Cl

> <Canonical_QSARr>
OC(=O)CC1C=CC(Cl)=CC=1Cl

> <InChI_Code_QSARr>
InChI=1S/C8H6Cl2O2/c9-6-2-1-5(3-8(11)12)7(10)4-6/h1-2,4H,3H2,(H,11,12)

> <InChI Key_QSARr>
GXMWLJKTGBZMBH-UHFFFAOYSA-N

> <Salt_Solvent>


> <Salt_Solvent_ID>
0

> <Number of connected components>
1

$$$$
Molecule_328
  Mrv2316 01072400032D          

 17 18  0  0  0  0            999 V2000
    0.0000   -3.8338    0.0000 C   0  0  0  0  0  0  0  0  0  0  0  0
    0.7145   -3.4213    0.0000 C   0  0  0  0  0  0  0  0  0  0  0  0
    0.7145   -2.5963    0.0000 O   0  0  0  0  0  0  0  0  0  0  0  0
    1.4289   -3.8338    0.0000 C   0  0  0  0  0  0  0  0  0  0  0  0
    2.1434   -3.4213    0.0000 C   0  0  0  0  0  0  0  0  0  0  0  0
    2.1434   -2.5963    0.0000 O   0  0  0  0  0  0  0  0  0  0  0  0
    2.8579   -3.8338    0.0000 N   0  0  0  0  0  0  0  0  0  0  0  0
    3.5724   -3.4213    0.0000 C   0  0  0  0  0  0  0  0  0  0  0  0
    4.2868   -3.8338    0.0000 C   0  0  0  0  0  0  0  0  0  0  0  0
    5.0013   -3.4213    0.0000 C   0  0  0  0  0  0  0  0  0  0  0  0
    5.7859   -3.6763    0.0000 N   0  0  0  0  0  0  0  0  0  0  0  0
    6.2708   -3.0088    0.0000 C   0  0  0  0  0  0  0  0  0  0  0  0
    7.0958   -3.0088    0.0000 O   0  0  0  0  0  0  0  0  0  0  0  0
    5.7859   -2.3414    0.0000 N   0  0  0  0  0  0  0  0  0  0  0  0
    5.0013   -2.5963    0.0000 C   0  0  0  0  0  0  0  0  0  0  0  0
    4.2868   -2.1838    0.0000 C   0  0  0  0  0  0  0  0  0  0  0  0
    3.5724   -2.5963    0.0000 C   0  0  0  0  0  0  0  0  0  0  0  0
  1  2  1  0  0  0  0
  2  3  2  0  0  0  0
  2  4  1  0  0  0  0
  4  5  1  0  0  0  0
  5  6  2  0  0  0  0
  5  7  1  0  0  0  0
  7  8  1  0  0  0  0
  9  8  2  0  0  0  0
 10  9  1  0  0  0  0
 10 11  1  0  0  0  0
 11 12  1  0  0  0  0
 12 13  2  0  0  0  0
 12 14  1  0  0  0  0
 14 15  1  0  0  0  0
 15 10  2  0  0  0  0
 16 15  1  0  0  0  0
 17 16  2  0  0  0  0
  8 17  1  0  0  0  0
M  END
> <RowID>
328

> <Original_SMILES>
CC(=O)CC(=O)NC1=CC2NC(=O)NC=2C=C1

> <Canonical_QSARr>
CC(=O)CC(=O)NC1=CC2NC(=O)NC=2C=C1

> <InChI_Code_QSARr>
InChI=1S/C11H11N3O3/c1-6(15)4-10(16)12-7-2-3-8-9(5-7)14-11(17)13-8/h2-3,5H,4H2,1H3,(H,12,16)(H2,13,14,17)

> <InChI Key_QSARr>
VEMDQCGHZNXORX-UHFFFAOYSA-N

> <Salt_Solvent>


> <Salt_Solvent_ID>
0

> <Number of connected components>
1

$$$$
Molecule_329
  Mrv2316 01072400032D          

 11 10  0  0  0  0            999 V2000
   -0.0000    3.9039    0.0000 C   0  0  0  0  0  0  0  0  0  0  0  0
    0.7145    3.4914    0.0000 C   0  0  0  0  0  0  0  0  0  0  0  0
    1.4289    3.9039    0.0000 C   0  0  0  0  0  0  0  0  0  0  0  0
    2.1434    4.3164    0.0000 N   0  0  0  0  0  0  0  0  0  0  0  0
    0.7145    2.6664    0.0000 N   0  0  0  0  0  0  0  0  0  0  0  0
   -0.0000    2.2539    0.0000 C   0  0  0  0  0  0  0  0  0  0  0  0
   -0.0000    1.4289    0.0000 C   0  0  0  0  0  0  0  0  0  0  0  0
   -0.0000    0.6039    0.0000 N   0  0  0  0  0  0  0  0  0  0  0  0
    1.4289    2.2539    0.0000 C   0  0  0  0  0  0  0  0  0  0  0  0
    1.4289    1.4289    0.0000 C   0  0  0  0  0  0  0  0  0  0  0  0
    1.4289    0.6039    0.0000 N   0  0  0  0  0  0  0  0  0  0  0  0
  1  2  1  0  0  0  0
  2  3  1  0  0  0  0
  3  4  3  0  0  0  0
  2  5  1  0  0  0  0
  5  6  1  0  0  0  0
  6  7  1  0  0  0  0
  7  8  3  0  0  0  0
  5  9  1  0  0  0  0
  9 10  1  0  0  0  0
 10 11  3  0  0  0  0
M  END
> <RowID>
329

> <Original_SMILES>
CC(C#N)N(CC#N)CC#N

> <Canonical_QSARr>
CC(C#N)N(CC#N)CC#N

> <InChI_Code_QSARr>
InChI=1S/C7H8N4/c1-7(6-10)11(4-2-8)5-3-9/h7H,4-5H2,1H3

> <InChI Key_QSARr>
FIIUFZGDWANGEJ-UHFFFAOYSA-N

> <Salt_Solvent>


> <Salt_Solvent_ID>
0

> <Number of connected components>
1

$$$$
Molecule_330
  Mrv2316 01072400032D          

 22 22  0  0  0  0            999 V2000
   -0.1895   -2.5168    0.0000 C   0  0  0  0  0  0  0  0  0  0  0  0
   -0.1895   -1.6918    0.0000 C   0  0  0  0  0  0  0  0  0  0  0  0
   -0.9040   -1.2793    0.0000 O   0  0  0  0  0  0  0  0  0  0  0  0
    0.5250   -1.2793    0.0000 N   0  0  0  0  0  0  0  0  0  0  0  0
    0.5250   -0.4543    0.0000 C   0  0  0  0  0  0  0  0  0  0  0  0
    1.2394   -0.0418    0.0000 C   0  0  0  0  0  0  0  0  0  0  0  0
    1.9539   -0.4543    0.0000 C   0  0  0  0  0  0  0  0  0  0  0  0
    2.6684   -0.0418    0.0000 O   0  0  0  0  0  0  0  0  0  0  0  0
    1.9539   -1.2793    0.0000 C   0  0  0  0  0  0  0  0  0  0  0  0
    1.2394   -1.6918    0.0000 O   0  0  0  0  0  0  0  0  0  0  0  0
    2.6684   -1.6918    0.0000 C   0  0  0  0  0  0  0  0  0  0  0  0
    2.6684   -2.5168    0.0000 O   0  0  0  0  0  0  0  0  0  0  0  0
    1.2394    0.7832    0.0000 O   0  0  0  0  0  0  0  0  0  0  0  0
    0.5250    1.1957    0.0000 C   0  0  0  0  0  0  0  0  0  0  0  0
    1.0553    1.8277    0.0000 O   0  0  0  0  0  0  0  0  0  0  0  0
   -0.0053    1.8277    0.0000 C   0  0  0  0  0  0  0  0  0  0  0  0
   -0.8178    1.6845    0.0000 O   0  0  0  0  0  0  0  0  0  0  0  0
    0.2768    2.6030    0.0000 O   0  0  0  0  0  0  0  0  0  0  0  0
   -0.2535    3.2350    0.0000 C   0  0  0  0  0  0  0  0  0  0  0  0
   -0.1895    0.7832    0.0000 C   0  0  0  0  0  0  0  0  0  0  0  0
   -0.1895   -0.0418    0.0000 C   0  0  0  0  0  0  0  0  0  0  0  0
   -0.9040   -0.4543    0.0000 O   0  0  0  0  0  0  0  0  0  0  0  0
  1  2  1  0  0  0  0
  2  3  2  0  0  0  0
  2  4  1  0  0  0  0
  4  5  1  0  0  0  0
  6  5  1  0  0  0  0
  6  7  1  0  0  0  0
  7  8  1  0  0  0  0
  7  9  1  0  0  0  0
  9 10  1  0  0  0  0
  9 11  1  0  0  0  0
 11 12  1  0  0  0  0
 13  6  1  0  0  0  0
 14 13  1  0  0  0  0
 14 15  1  0  0  0  0
 14 16  1  0  0  0  0
 16 17  2  0  0  0  0
 16 18  1  0  0  0  0
 18 19  1  0  0  0  0
 20 14  1  0  0  0  0
 21 20  1  0  0  0  0
  5 21  1  0  0  0  0
 21 22  1  0  0  0  0
M  END
> <RowID>
330

> <Original_SMILES>
CC(=O)NC1C(OC(O)(CC1O)C(=O)OC)C(O)C(O)CO

> <Canonical_QSARr>
CC(=O)NC1C(OC(O)(CC1O)C(=O)OC)C(O)C(O)CO

> <InChI_Code_QSARr>
InChI=1S/C12H21NO9/c1-5(15)13-8-6(16)3-12(20,11(19)21-2)22-10(8)9(18)7(17)4-14/h6-10,14,16-18,20H,3-4H2,1-2H3,(H,13,15)

> <InChI Key_QSARr>
BKZQMWNJESHHSA-UHFFFAOYSA-N

> <Salt_Solvent>


> <Salt_Solvent_ID>
0

> <Number of connected components>
1

$$$$
Molecule_331
  Mrv2316 01072400032D          

 24 25  0  0  0  0            999 V2000
    0.8038   -7.9922    0.0000 C   0  0  0  0  0  0  0  0  0  0  0  0
    1.5182   -7.5797    0.0000 C   0  0  0  0  0  0  0  0  0  0  0  0
    1.5182   -6.7547    0.0000 C   0  0  0  0  0  0  0  0  0  0  0  0
    2.2327   -6.3422    0.0000 C   0  0  0  0  0  0  0  0  0  0  0  0
    2.2327   -5.5172    0.0000 O   0  0  0  0  0  0  0  0  0  0  0  0
    1.5182   -5.1047    0.0000 C   0  0  0  0  0  0  0  0  0  0  0  0
    1.5182   -4.2797    0.0000 C   0  0  0  0  0  0  0  0  0  0  0  0
    2.2327   -3.8672    0.0000 C   0  0  0  0  0  0  0  0  0  0  0  0
    2.2327   -3.0422    0.0000 C   0  0  0  0  0  0  0  0  0  0  0  0
    1.5182   -2.6297    0.0000 C   0  0  0  0  0  0  0  0  0  0  0  0
    0.8038   -3.0422    0.0000 C   0  0  0  0  0  0  0  0  0  0  0  0
    0.8038   -3.8672    0.0000 C   0  0  0  0  0  0  0  0  0  0  0  0
    0.0893   -4.2797    0.0000 C   0  0  0  0  0  0  0  0  0  0  0  0
   -0.6252   -3.8672    0.0000 N   0  0  0  0  0  0  0  0  0  0  0  0
   -1.3396   -4.2797    0.0000 O   0  0  0  0  0  0  0  0  0  0  0  0
   -1.3396   -5.1047    0.0000 C   0  0  0  0  0  0  0  0  0  0  0  0
    0.0893   -5.1047    0.0000 C   0  0  0  0  0  0  0  0  0  0  0  0
   -0.6252   -5.5172    0.0000 O   0  0  0  0  0  0  0  0  0  0  0  0
    0.8038   -5.5172    0.0000 O   0  0  0  0  0  0  0  0  0  0  0  0
    0.8038   -6.3422    0.0000 C   0  0  0  0  0  0  0  0  0  0  0  0
    2.9472   -6.7547    0.0000 C   0  0  0  0  0  0  0  0  0  0  0  0
    3.6617   -6.3422    0.0000 C   0  0  0  0  0  0  0  0  0  0  0  0
    2.9472   -7.5797    0.0000 C   0  0  0  0  0  0  0  0  0  0  0  0
    2.2327   -7.9922    0.0000 C   0  0  0  0  0  0  0  0  0  0  0  0
  1  2  1  0  0  0  0
  3  2  1  0  0  0  0
  4  3  2  0  0  0  0
  4  5  1  0  0  0  0
  5  6  1  0  0  0  0
  6  7  1  0  0  0  0
  8  7  2  0  0  0  0
  9  8  1  0  0  0  0
 10  9  2  0  0  0  0
 11 10  1  0  0  0  0
 12 11  2  0  0  0  0
  7 12  1  0  0  0  0
 12 13  1  0  0  0  0
 13 14  2  0  0  0  0
 14 15  1  4  0  0  0
 15 16  1  0  0  0  0
 13 17  1  0  0  0  0
 17 18  2  0  0  0  0
 17 19  1  0  0  0  0
 19 20  1  0  0  0  0
 21  4  1  0  0  0  0
 21 22  1  0  0  0  0
 23 21  2  0  0  0  0
 24 23  1  0  0  0  0
  2 24  2  0  0  0  0
M  END
> <RowID>
331

> <Original_SMILES>
CC1C=C(OCC2=CC=CC=C2C(=NOC)C(=O)OC)C(C)=CC=1

> <Canonical_QSARr>
CC1C=C(OCC2=CC=CC=C2C(=NOC)C(=O)OC)C(C)=CC=1

> <InChI_Code_QSARr>
InChI=1S/C19H21NO4/c1-13-9-10-14(2)17(11-13)24-12-15-7-5-6-8-16(15)18(20-23-4)19(21)22-3/h5-11H,12H2,1-4H3

> <InChI Key_QSARr>
WNPSUZXQGSLQCF-UHFFFAOYSA-N

> <Salt_Solvent>


> <Salt_Solvent_ID>
0

> <Number of connected components>
1

$$$$
Molecule_332
  Mrv2316 01072400032D          

 19 20  0  0  0  0            999 V2000
    1.4289   -9.5092    0.0000 N   0  0  0  0  0  0  0  0  0  0  0  0
    1.4289   -8.6842    0.0000 C   0  0  0  0  0  0  0  0  0  0  0  0
    2.1434   -8.2717    0.0000 C   0  0  0  0  0  0  0  0  0  0  0  0
    2.1434   -7.4467    0.0000 C   0  0  0  0  0  0  0  0  0  0  0  0
    1.4289   -7.0342    0.0000 C   0  0  0  0  0  0  0  0  0  0  0  0
    1.4289   -6.2092    0.0000 C   0  0  0  0  0  0  0  0  0  0  0  0
    0.7145   -5.7967    0.0000 O   0  0  0  0  0  0  0  0  0  0  0  0
    2.1434   -5.7967    0.0000 N   0  0  0  0  0  0  0  0  0  0  0  0
    2.1434   -4.9717    0.0000 C   0  0  0  0  0  0  0  0  0  0  0  0
    2.8579   -4.5592    0.0000 C   0  0  0  0  0  0  0  0  0  0  0  0
    2.8579   -3.7342    0.0000 C   0  0  0  0  0  0  0  0  0  0  0  0
    2.1434   -3.3217    0.0000 C   0  0  0  0  0  0  0  0  0  0  0  0
    2.1434   -2.4967    0.0000 C   0  0  0  0  0  0  0  0  0  0  0  0
    1.4289   -2.0842    0.0000 N   0  0  0  0  0  0  0  0  0  0  0  0
    2.8579   -2.0842    0.0000 O   0  0  0  0  0  0  0  0  0  0  0  0
    1.4289   -3.7342    0.0000 C   0  0  0  0  0  0  0  0  0  0  0  0
    1.4289   -4.5592    0.0000 C   0  0  0  0  0  0  0  0  0  0  0  0
    0.7145   -7.4467    0.0000 C   0  0  0  0  0  0  0  0  0  0  0  0
    0.7145   -8.2717    0.0000 C   0  0  0  0  0  0  0  0  0  0  0  0
  1  2  1  0  0  0  0
  3  2  1  0  0  0  0
  4  3  2  0  0  0  0
  5  4  1  0  0  0  0
  5  6  1  0  0  0  0
  6  7  1  0  0  0  0
  6  8  2  0  0  0  0
  8  9  1  4  0  0  0
 10  9  1  0  0  0  0
 11 10  2  0  0  0  0
 12 11  1  0  0  0  0
 12 13  1  0  0  0  0
 13 14  1  0  0  0  0
 13 15  2  0  0  0  0
 16 12  2  0  0  0  0
 17 16  1  0  0  0  0
  9 17  2  0  0  0  0
 18  5  2  0  0  0  0
 19 18  1  0  0  0  0
  2 19  2  0  0  0  0
M  END
> <RowID>
332

> <Original_SMILES>
NC1C=CC(=CC=1)C(O)=NC1C=CC(=CC=1)C(N)=O

> <Canonical_QSARr>
NC1C=CC(=CC=1)C(O)=NC1C=CC(=CC=1)C(N)=O

> <InChI_Code_QSARr>
InChI=1S/C14H13N3O2/c15-11-5-1-10(2-6-11)14(19)17-12-7-3-9(4-8-12)13(16)18/h1-8H,15H2,(H2,16,18)(H,17,19)

> <InChI Key_QSARr>
FSPYMSUDIVFOHY-UHFFFAOYSA-N

> <Salt_Solvent>


> <Salt_Solvent_ID>
0

> <Number of connected components>
1

$$$$
Molecule_333
  Mrv2316 01072400032D          

 26 25  0  0  0  0            999 V2000
    6.7105   -4.6993    0.0000 C   0  0  0  0  0  0  0  0  0  0  0  0
    7.4250   -4.2868    0.0000 C   0  0  0  0  0  0  0  0  0  0  0  0
    8.1394   -4.6993    0.0000 C   0  0  0  0  0  0  0  0  0  0  0  0
    8.8539   -4.2868    0.0000 C   0  0  0  0  0  0  0  0  0  0  0  0
    9.5684   -4.6993    0.0000 C   0  0  0  0  0  0  0  0  0  0  0  0
   10.2829   -4.2868    0.0000 C   0  0  0  0  0  0  0  0  0  0  0  0
   10.9973   -4.6993    0.0000 C   0  0  0  0  0  0  0  0  0  0  0  0
   11.7118   -4.2868    0.0000 C   0  0  0  0  0  0  0  0  0  0  0  0
   12.4263   -4.6993    0.0000 C   0  0  0  0  0  0  0  0  0  0  0  0
   13.1407   -4.2868    0.0000 C   0  0  0  0  0  0  0  0  0  0  0  0
   13.8552   -4.6993    0.0000 C   0  0  0  0  0  0  0  0  0  0  0  0
   14.5697   -4.2868    0.0000 C   0  0  0  0  0  0  0  0  0  0  0  0
   15.2842   -4.6993    0.0000 C   0  0  0  0  0  0  0  0  0  0  0  0
   15.9986   -4.2868    0.0000 C   0  0  0  0  0  0  0  0  0  0  0  0
   16.7131   -4.6993    0.0000 Si  0  0  0  0  0  0  0  0  0  0  0  0
   16.3006   -5.4138    0.0000 C   0  0  0  0  0  0  0  0  0  0  0  0
   17.4276   -5.1118    0.0000 O   0  0  0  0  0  0  0  0  0  0  0  0
   17.4276   -5.9368    0.0000 Si  0  0  0  0  0  0  0  0  0  0  0  0
   17.4276   -6.7618    0.0000 C   0  0  0  0  0  0  0  0  0  0  0  0
   16.6026   -5.9368    0.0000 C   0  0  0  0  0  0  0  0  0  0  0  0
   18.2526   -5.9368    0.0000 C   0  0  0  0  0  0  0  0  0  0  0  0
   17.1256   -3.9848    0.0000 O   0  0  0  0  0  0  0  0  0  0  0  0
   17.9506   -3.9848    0.0000 Si  0  0  0  0  0  0  0  0  0  0  0  0
   17.9506   -4.8098    0.0000 C   0  0  0  0  0  0  0  0  0  0  0  0
   17.9506   -3.1598    0.0000 C   0  0  0  0  0  0  0  0  0  0  0  0
   18.7756   -3.9848    0.0000 C   0  0  0  0  0  0  0  0  0  0  0  0
  1  2  1  0  0  0  0
  2  3  1  0  0  0  0
  3  4  1  0  0  0  0
  4  5  1  0  0  0  0
  5  6  1  0  0  0  0
  6  7  1  0  0  0  0
  7  8  1  0  0  0  0
  8  9  1  0  0  0  0
  9 10  1  0  0  0  0
 10 11  1  0  0  0  0
 11 12  1  0  0  0  0
 12 13  1  0  0  0  0
 13 14  1  0  0  0  0
 14 15  1  0  0  0  0
 15 16  1  0  0  0  0
 15 17  1  0  0  0  0
 17 18  1  0  0  0  0
 18 19  1  0  0  0  0
 18 20  1  0  0  0  0
 18 21  1  0  0  0  0
 15 22  1  0  0  0  0
 22 23  1  0  0  0  0
 23 24  1  0  0  0  0
 23 25  1  0  0  0  0
 23 26  1  0  0  0  0
M  END
> <RowID>
333

> <Original_SMILES>
CCCCCCCCCCCCCC[Si](C)(O[Si](C)(C)C)O[Si](C)(C)C

> <Canonical_QSARr>
CCCCCCCCCCCCCC[Si](C)(O[Si](C)(C)C)O[Si](C)(C)C

> <InChI_Code_QSARr>
InChI=1S/C21H50O2Si3/c1-9-10-11-12-13-14-15-16-17-18-19-20-21-26(8,22-24(2,3)4)23-25(5,6)7/h9-21H2,1-8H3

> <InChI Key_QSARr>
CIAZJIQGPOGZDS-UHFFFAOYSA-N

> <Salt_Solvent>


> <Salt_Solvent_ID>
0

> <Number of connected components>
1

$$$$
Molecule_334
  Mrv2316 01072400032D          

 10  9  0  0  0  0            999 V2000
    1.9520    1.9520    0.0000 C   0  0  0  0  0  0  0  0  0  0  0  0
    1.9520    1.1270    0.0000 C   0  0  0  0  0  0  0  0  0  0  0  0
    1.2375    0.7145    0.0000 C   0  0  0  0  0  0  0  0  0  0  0  0
    0.5230    1.1270    0.0000 C   0  0  0  0  0  0  0  0  0  0  0  0
   -0.1914    0.7145    0.0000 C   0  0  0  0  0  0  0  0  0  0  0  0
   -0.9059    1.1270    0.0000 C   0  0  0  0  0  0  0  0  0  0  0  0
   -1.6204    0.7145    0.0000 C   0  0  0  0  0  0  0  0  0  0  0  0
   -0.9059    1.9520    0.0000 C   0  0  0  0  0  0  0  0  0  0  0  0
    2.6664    0.7145    0.0000 C   0  0  0  0  0  0  0  0  0  0  0  0
    3.3809    1.1270    0.0000 C   0  0  0  0  0  0  0  0  0  0  0  0
  1  2  1  0  0  0  0
  2  3  1  0  0  0  0
  3  4  1  0  0  0  0
  4  5  1  0  0  0  0
  5  6  2  0  0  0  0
  6  7  1  0  0  0  0
  6  8  1  0  0  0  0
  2  9  1  0  0  0  0
  9 10  2  0  0  0  0
M  END
> <RowID>
334

> <Original_SMILES>
CC(CCC=C(C)C)C=C

> <Canonical_QSARr>
CC(CCC=C(C)C)C=C

> <InChI_Code_QSARr>
InChI=1S/C10H18/c1-5-10(4)8-6-7-9(2)3/h5,7,10H,1,6,8H2,2-4H3

> <InChI Key_QSARr>
FUDNBFMOXDUIIE-UHFFFAOYSA-N

> <Salt_Solvent>


> <Salt_Solvent_ID>
0

> <Number of connected components>
1

$$$$
Molecule_335
  Mrv2316 01072400032D          

 16 17  0  0  0  0            999 V2000
    0.0000   -1.6500    0.0000 C   0  0  0  0  0  0  0  0  0  0  0  0
    0.7145   -1.2375    0.0000 C   0  0  0  0  0  0  0  0  0  0  0  0
    0.7145   -0.4125    0.0000 C   0  0  0  0  0  0  0  0  0  0  0  0
    1.4289    0.0000    0.0000 O   0  0  0  0  0  0  0  0  0  0  0  0
    2.1434   -0.4125    0.0000 C   0  0  0  0  0  0  0  0  0  0  0  0
    2.8579    0.0000    0.0000 C   0  0  0  0  0  0  0  0  0  0  0  0
    3.5724   -0.4125    0.0000 C   0  0  0  0  0  0  0  0  0  0  0  0
    3.5724   -1.2375    0.0000 C   0  0  0  0  0  0  0  0  0  0  0  0
    2.8579   -1.6500    0.0000 C   0  0  0  0  0  0  0  0  0  0  0  0
    2.1434   -1.2375    0.0000 C   0  0  0  0  0  0  0  0  0  0  0  0
    1.4289   -1.6500    0.0000 N   0  0  0  0  0  0  0  0  0  0  0  0
    1.4289   -2.4750    0.0000 C   0  0  0  0  0  0  0  0  0  0  0  0
    2.1434   -2.8875    0.0000 O   0  0  0  0  0  0  0  0  0  0  0  0
    0.7145   -2.8875    0.0000 C   0  0  0  0  0  0  0  0  0  0  0  0
    0.7145   -3.7125    0.0000 Cl  0  0  0  0  0  0  0  0  0  0  0  0
    0.0000   -2.4750    0.0000 Cl  0  0  0  0  0  0  0  0  0  0  0  0
  1  2  1  0  0  0  0
  3  2  1  0  0  0  0
  4  3  1  0  0  0  0
  5  4  1  0  0  0  0
  5  6  1  0  0  0  0
  6  7  2  0  0  0  0
  7  8  1  0  0  0  0
  8  9  2  0  0  0  0
  9 10  1  0  0  0  0
 10  5  2  0  0  0  0
 11 10  1  0  0  0  0
  2 11  1  0  0  0  0
 11 12  1  0  0  0  0
 12 13  2  0  0  0  0
 12 14  1  0  0  0  0
 14 15  1  0  0  0  0
 14 16  1  0  0  0  0
M  END
> <RowID>
335

> <Original_SMILES>
CC1COC2C=CC=CC=2N1C(=O)C(Cl)Cl

> <Canonical_QSARr>
CC1COC2C=CC=CC=2N1C(=O)C(Cl)Cl

> <InChI_Code_QSARr>
InChI=1S/C11H11Cl2NO2/c1-7-6-16-9-5-3-2-4-8(9)14(7)11(15)10(12)13/h2-5,7,10H,6H2,1H3

> <InChI Key_QSARr>
PFJJMJDEVDLPNE-UHFFFAOYSA-N

> <Salt_Solvent>


> <Salt_Solvent_ID>
0

> <Number of connected components>
1

$$$$
Molecule_337
  Mrv2316 01072400032D          

 11 11  0  0  0  0            999 V2000
   -0.6865   -1.4835    0.0000 C   0  0  0  0  0  0  0  0  0  0  0  0
    0.0280   -1.8960    0.0000 C   0  0  0  0  0  0  0  0  0  0  0  0
    0.7425   -1.4835    0.0000 C   0  0  0  0  0  0  0  0  0  0  0  0
    1.4569   -1.8960    0.0000 C   0  0  0  0  0  0  0  0  0  0  0  0
    2.1714   -1.4835    0.0000 C   0  0  0  0  0  0  0  0  0  0  0  0
    2.8859   -1.8960    0.0000 C   0  0  0  0  0  0  0  0  0  0  0  0
    2.9721   -2.7165    0.0000 C   0  0  0  0  0  0  0  0  0  0  0  0
    3.7791   -2.8880    0.0000 C   0  0  0  0  0  0  0  0  0  0  0  0
    4.1916   -2.1735    0.0000 C   0  0  0  0  0  0  0  0  0  0  0  0
    5.0121   -2.0873    0.0000 O   0  0  0  0  0  0  0  0  0  0  0  0
    3.6396   -1.5605    0.0000 O   0  0  0  0  0  0  0  0  0  0  0  0
  1  2  1  0  0  0  0
  2  3  1  0  0  0  0
  3  4  1  0  0  0  0
  4  5  1  0  0  0  0
  5  6  1  0  0  0  0
  7  6  1  0  0  0  0
  8  7  1  0  0  0  0
  9  8  1  0  0  0  0
  9 10  2  0  0  0  0
 11  9  1  0  0  0  0
  6 11  1  0  0  0  0
M  END
> <RowID>
337

> <Original_SMILES>
CCCCCC1CCC(=O)O1

> <Canonical_QSARr>
CCCCCC1CCC(=O)O1

> <InChI_Code_QSARr>
InChI=1S/C9H16O2/c1-2-3-4-5-8-6-7-9(10)11-8/h8H,2-7H2,1H3

> <InChI Key_QSARr>
OALYTRUKMRCXNH-UHFFFAOYSA-N

> <Salt_Solvent>


> <Salt_Solvent_ID>
0

> <Number of connected components>
1

$$$$
Molecule_340
  Mrv2316 01072400032D          

 22 22  0  0  0  0            999 V2000
    6.3978   -3.9563    0.0000 N   0  0  0  0  0  0  0  0  0  0  0  0
    5.6833   -3.5438    0.0000 C   0  0  0  0  0  0  0  0  0  0  0  0
    5.6833   -2.7187    0.0000 C   0  0  0  0  0  0  0  0  0  0  0  0
    4.9688   -2.3062    0.0000 C   0  0  0  0  0  0  0  0  0  0  0  0
    4.9688   -1.4812    0.0000 C   0  0  0  0  0  0  0  0  0  0  0  0
    5.6833   -1.0688    0.0000 O   0  0  0  0  0  0  0  0  0  0  0  0
    4.2544   -1.0688    0.0000 N   0  0  0  0  0  0  0  0  0  0  0  0
    4.2544   -0.2438    0.0000 C   0  0  0  0  0  0  0  0  0  0  0  0
    3.5399    0.1687    0.0000 C   0  0  0  0  0  0  0  0  0  0  0  0
    3.5399    0.9938    0.0000 S   0  0  0  0  0  0  0  0  0  0  0  0
    4.3649    0.9937    0.0000 O   0  0  0  0  0  0  0  0  0  0  0  0
    2.7149    0.9938    0.0000 O   0  0  0  0  0  0  0  0  0  0  0  0
    3.5399    1.8187    0.0000 C   0  0  0  0  0  0  0  0  0  0  0  0
    2.8254    2.2313    0.0000 C   0  0  0  0  0  0  0  0  0  0  0  0
    2.8254    3.0562    0.0000 O   0  0  0  0  0  0  0  0  0  0  0  0
    2.1110    3.4687    0.0000 S   0  0  0  0  0  0  0  0  0  0  0  0
    1.3965    3.8813    0.0000 O   0  0  0  0  0  0  0  0  0  0  0  0
    2.5235    4.1832    0.0000 O   0  0  0  0  0  0  0  0  0  0  0  0
    1.6985    2.7543    0.0000 O   0  0  0  0  0  0  0  0  0  0  0  0
    4.2544   -2.7187    0.0000 C   0  0  0  0  0  0  0  0  0  0  0  0
    4.2544   -3.5437    0.0000 C   0  0  0  0  0  0  0  0  0  0  0  0
    4.9688   -3.9562    0.0000 C   0  0  0  0  0  0  0  0  0  0  0  0
  1  2  1  0  0  0  0
  3  2  1  0  0  0  0
  4  3  2  0  0  0  0
  4  5  1  0  0  0  0
  5  6  2  0  0  0  0
  5  7  1  0  0  0  0
  7  8  1  0  0  0  0
  8  9  1  0  0  0  0
  9 10  1  0  0  0  0
 10 11  2  0  0  0  0
 10 12  2  0  0  0  0
 10 13  1  0  0  0  0
 13 14  1  0  0  0  0
 14 15  1  0  0  0  0
 15 16  1  0  0  0  0
 16 17  1  0  0  0  0
 16 18  2  0  0  0  0
 16 19  2  0  0  0  0
 20  4  1  0  0  0  0
 21 20  2  0  0  0  0
 22 21  1  0  0  0  0
  2 22  2  0  0  0  0
M  END
> <RowID>
340

> <Original_SMILES>
NC1C=C(C=CC=1)C(=O)NCCS(=O)(=O)CCOS(O)(=O)=O

> <Canonical_QSARr>
NC1C=C(C=CC=1)C(=O)NCCS(=O)(=O)CCOS(O)(=O)=O

> <InChI_Code_QSARr>
InChI=1S/C11H16N2O7S2/c12-10-3-1-2-9(8-10)11(14)13-4-6-21(15,16)7-5-20-22(17,18)19/h1-3,8H,4-7,12H2,(H,13,14)(H,17,18,19)

> <InChI Key_QSARr>
VDSCZRDDLKLPIT-UHFFFAOYSA-N

> <Salt_Solvent>


> <Salt_Solvent_ID>
0

> <Number of connected components>
1

$$$$
Molecule_341
  Mrv2316 01072400032D          

 15 15  0  0  0  0            999 V2000
    1.7624   -0.4125    0.0000 C   0  0  0  0  0  0  0  0  0  0  0  0
    1.0479   -0.0000    0.0000 C   0  0  0  0  0  0  0  0  0  0  0  0
    1.0479    0.8250    0.0000 C   0  0  0  0  0  0  0  0  0  0  0  0
    0.3334    1.2375    0.0000 C   0  0  0  0  0  0  0  0  0  0  0  0
    0.3334    2.0625    0.0000 C   0  0  0  0  0  0  0  0  0  0  0  0
   -0.3811    2.4750    0.0000 C   0  0  0  0  0  0  0  0  0  0  0  0
   -0.3811    3.3000    0.0000 C   0  0  0  0  0  0  0  0  0  0  0  0
   -1.0955    2.0625    0.0000 C   0  0  0  0  0  0  0  0  0  0  0  0
   -0.3811    0.8250    0.0000 C   0  0  0  0  0  0  0  0  0  0  0  0
   -0.3811    0.0000    0.0000 C   0  0  0  0  0  0  0  0  0  0  0  0
    0.3334   -0.4125    0.0000 C   0  0  0  0  0  0  0  0  0  0  0  0
    0.3334   -1.2375    0.0000 C   0  0  0  0  0  0  0  0  0  0  0  0
    1.0479   -1.6500    0.0000 C   0  0  0  0  0  0  0  0  0  0  0  0
    1.0479   -2.4750    0.0000 C   0  0  0  0  0  0  0  0  0  0  0  0
    1.7624   -2.8875    0.0000 O   0  0  0  0  0  0  0  0  0  0  0  0
  1  2  1  0  0  0  0
  3  2  1  0  0  0  0
  4  3  2  0  0  0  0
  4  5  1  0  0  0  0
  5  6  1  0  0  0  0
  6  7  1  0  0  0  0
  6  8  1  0  0  0  0
  9  4  1  0  0  0  0
 10  9  2  0  0  0  0
 11 10  1  0  0  0  0
  2 11  2  0  0  0  0
 11 12  1  0  0  0  0
 12 13  1  0  0  0  0
 13 14  1  0  0  0  0
 14 15  2  0  0  0  0
M  END
> <RowID>
341

> <Original_SMILES>
CC1C=C(CC(C)C)C=CC=1CCC=O

> <Canonical_QSARr>
CC1C=C(CC(C)C)C=CC=1CCC=O

> <InChI_Code_QSARr>
InChI=1S/C14H20O/c1-11(2)9-13-6-7-14(5-4-8-15)12(3)10-13/h6-8,10-11H,4-5,9H2,1-3H3

> <InChI Key_QSARr>
UKZXPOJABTXLMK-UHFFFAOYSA-N

> <Salt_Solvent>


> <Salt_Solvent_ID>
0

> <Number of connected components>
1

$$$$
Molecule_342
  Mrv2316 01072400032D          

 15 17  0  0  0  0            999 V2000
    3.3912   -1.2338    0.0000 C   0  0  0  0  0  0  0  0  0  0  0  0
    4.2162   -1.2338    0.0000 C   0  0  0  0  0  0  0  0  0  0  0  0
    4.7306   -0.5888    0.0000 C   0  0  0  0  0  0  0  0  0  0  0  0
    5.5189   -0.8320    0.0000 C   0  0  0  0  0  0  0  0  0  0  0  0
    6.1237   -0.2708    0.0000 C   0  0  0  0  0  0  0  0  0  0  0  0
    5.9401    0.5335    0.0000 C   0  0  0  0  0  0  0  0  0  0  0  0
    5.1517    0.7767    0.0000 C   0  0  0  0  0  0  0  0  0  0  0  0
    4.5470    0.2155    0.0000 C   0  0  0  0  0  0  0  0  0  0  0  0
    3.8037    0.5735    0.0000 N   0  0  0  0  0  0  0  0  0  0  0  0
    3.0604    0.2155    0.0000 C   0  0  0  0  0  0  0  0  0  0  0  0
    2.4556    0.7767    0.0000 C   0  0  0  0  0  0  0  0  0  0  0  0
    1.6673    0.5335    0.0000 C   0  0  0  0  0  0  0  0  0  0  0  0
    1.4837   -0.2708    0.0000 C   0  0  0  0  0  0  0  0  0  0  0  0
    2.0885   -0.8320    0.0000 C   0  0  0  0  0  0  0  0  0  0  0  0
    2.8768   -0.5888    0.0000 C   0  0  0  0  0  0  0  0  0  0  0  0
  2  1  2  0  0  0  0
  3  2  1  0  0  0  0
  3  4  2  0  0  0  0
  4  5  1  0  0  0  0
  5  6  2  0  0  0  0
  6  7  1  0  0  0  0
  7  8  2  0  0  0  0
  8  3  1  0  0  0  0
  9  8  1  0  0  0  0
 10  9  1  0  0  0  0
 10 11  2  0  0  0  0
 11 12  1  0  0  0  0
 12 13  2  0  0  0  0
 13 14  1  0  0  0  0
 14 15  2  0  0  0  0
  1 15  1  0  0  0  0
 15 10  1  0  0  0  0
M  END
> <RowID>
342

> <Original_SMILES>
C1=CC2=CC=CC=C2NC2=CC=CC=C21

> <Canonical_QSARr>
C1=CC2=CC=CC=C2NC2=CC=CC=C21

> <InChI_Code_QSARr>
InChI=1S/C14H11N/c1-3-7-13-11(5-1)9-10-12-6-2-4-8-14(12)15-13/h1-10,15H

> <InChI Key_QSARr>
LCGTWRLJTMHIQZ-UHFFFAOYSA-N

> <Salt_Solvent>


> <Salt_Solvent_ID>
0

> <Number of connected components>
1

$$$$
Molecule_343
  Mrv2316 01072400032D          

 15 14  0  0  0  0            999 V2000
    6.5704    3.7934    0.0000 C   0  0  0  0  0  0  0  0  0  0  0  0
    5.8559    3.3809    0.0000 C   0  0  0  0  0  0  0  0  0  0  0  0
    5.1414    3.7934    0.0000 O   0  0  0  0  0  0  0  0  0  0  0  0
    5.8559    2.5559    0.0000 C   0  0  0  0  0  0  0  0  0  0  0  0
    5.1414    2.1434    0.0000 C   0  0  0  0  0  0  0  0  0  0  0  0
    4.4270    2.5559    0.0000 C   0  0  0  0  0  0  0  0  0  0  0  0
    4.4270    3.3809    0.0000 O   0  0  0  0  0  0  0  0  0  0  0  0
    3.7125    2.1434    0.0000 O   0  0  0  0  0  0  0  0  0  0  0  0
    2.9980    2.5559    0.0000 C   0  0  0  0  0  0  0  0  0  0  0  0
    2.2836    2.1434    0.0000 C   0  0  0  0  0  0  0  0  0  0  0  0
    6.5704    2.1434    0.0000 C   0  0  0  0  0  0  0  0  0  0  0  0
    6.5704    1.3184    0.0000 O   0  0  0  0  0  0  0  0  0  0  0  0
    7.2849    2.5559    0.0000 O   0  0  0  0  0  0  0  0  0  0  0  0
    7.9993    2.1434    0.0000 C   0  0  0  0  0  0  0  0  0  0  0  0
    8.7138    2.5559    0.0000 C   0  0  0  0  0  0  0  0  0  0  0  0
  1  2  1  0  0  0  0
  2  3  2  0  0  0  0
  2  4  1  0  0  0  0
  4  5  1  0  0  0  0
  5  6  1  0  0  0  0
  6  7  2  0  0  0  0
  6  8  1  0  0  0  0
  8  9  1  0  0  0  0
  9 10  1  0  0  0  0
  4 11  1  0  0  0  0
 11 12  2  0  0  0  0
 11 13  1  0  0  0  0
 13 14  1  0  0  0  0
 14 15  1  0  0  0  0
M  END
> <RowID>
343

> <Original_SMILES>
CC(=O)C(CC(=O)OCC)C(=O)OCC

> <Canonical_QSARr>
CC(=O)C(CC(=O)OCC)C(=O)OCC

> <InChI_Code_QSARr>
InChI=1S/C10H16O5/c1-4-14-9(12)6-8(7(3)11)10(13)15-5-2/h8H,4-6H2,1-3H3

> <InChI Key_QSARr>
DVSDDICSXBCMQJ-UHFFFAOYSA-N

> <Salt_Solvent>


> <Salt_Solvent_ID>
0

> <Number of connected components>
1

$$$$
Molecule_344
  Mrv2316 01072400032D          

 32 35  0  0  0  0            999 V2000
    0.3572   -3.9445    0.0000 C   0  0  0  0  0  0  0  0  0  0  0  0
    1.0717   -4.3570    0.0000 C   0  0  0  0  0  0  0  0  0  0  0  0
    1.0717   -5.1820    0.0000 C   0  0  0  0  0  0  0  0  0  0  0  0
    1.7862   -5.5945    0.0000 C   0  0  0  0  0  0  0  0  0  0  0  0
    2.5007   -5.1820    0.0000 C   0  0  0  0  0  0  0  0  0  0  0  0
    3.2151   -5.5945    0.0000 N   0  3  0  0  0  0  0  0  0  0  0  0
    3.2151   -6.4195    0.0000 O   0  5  0  0  0  0  0  0  0  0  0  0
    3.9296   -5.1820    0.0000 O   0  0  0  0  0  0  0  0  0  0  0  0
    2.5007   -4.3570    0.0000 C   0  0  0  0  0  0  0  0  0  0  0  0
    1.7862   -3.9445    0.0000 C   0  0  0  0  0  0  0  0  0  0  0  0
    1.7862   -3.1195    0.0000 N   0  0  0  0  0  0  0  0  0  0  0  0
    1.0717   -2.7070    0.0000 N   0  0  0  0  0  0  0  0  0  0  0  0
    1.0717   -1.8820    0.0000 C   0  0  0  0  0  0  0  0  0  0  0  0
    0.3572   -1.4695    0.0000 C   0  0  0  0  0  0  0  0  0  0  0  0
   -0.3572   -1.8820    0.0000 O   0  0  0  0  0  0  0  0  0  0  0  0
    0.3572   -0.6445    0.0000 C   0  0  0  0  0  0  0  0  0  0  0  0
   -0.3572   -0.2320    0.0000 C   0  0  0  0  0  0  0  0  0  0  0  0
   -1.0717   -0.6445    0.0000 O   0  0  0  0  0  0  0  0  0  0  0  0
   -0.3572    0.5930    0.0000 N   0  0  0  0  0  0  0  0  0  0  0  0
   -1.0717    1.0055    0.0000 C   0  0  0  0  0  0  0  0  0  0  0  0
   -1.0717    1.8305    0.0000 C   0  0  0  0  0  0  0  0  0  0  0  0
   -1.7862    2.2430    0.0000 C   0  0  0  0  0  0  0  0  0  0  0  0
   -2.5006    1.8305    0.0000 C   0  0  0  0  0  0  0  0  0  0  0  0
   -2.5006    1.0055    0.0000 C   0  0  0  0  0  0  0  0  0  0  0  0
   -1.7862    0.5930    0.0000 C   0  0  0  0  0  0  0  0  0  0  0  0
    1.0717   -0.2320    0.0000 C   0  0  0  0  0  0  0  0  0  0  0  0
    1.7862   -0.6445    0.0000 C   0  0  0  0  0  0  0  0  0  0  0  0
    2.5007   -0.2320    0.0000 C   0  0  0  0  0  0  0  0  0  0  0  0
    3.2151   -0.6445    0.0000 C   0  0  0  0  0  0  0  0  0  0  0  0
    3.2151   -1.4695    0.0000 C   0  0  0  0  0  0  0  0  0  0  0  0
    2.5007   -1.8820    0.0000 C   0  0  0  0  0  0  0  0  0  0  0  0
    1.7862   -1.4695    0.0000 C   0  0  0  0  0  0  0  0  0  0  0  0
  1  2  1  0  0  0  0
  3  2  2  0  0  0  0
  4  3  1  0  0  0  0
  5  4  2  0  0  0  0
  5  6  1  0  0  0  0
  6  7  1  0  0  0  0
  6  8  2  0  0  0  0
  9  5  1  0  0  0  0
 10  9  2  0  0  0  0
  2 10  1  0  0  0  0
 11 10  1  4  0  0  0
 11 12  2  0  0  0  0
 12 13  1  0  0  0  0
 14 13  2  0  0  0  0
 14 15  1  0  0  0  0
 16 14  1  0  0  0  0
 16 17  1  0  0  0  0
 17 18  2  0  0  0  0
 17 19  1  0  0  0  0
 19 20  1  0  0  0  0
 21 20  1  0  0  0  0
 22 21  2  0  0  0  0
 23 22  1  0  0  0  0
 24 23  2  0  0  0  0
 25 24  1  0  0  0  0
 20 25  2  0  0  0  0
 26 16  2  0  0  0  0
 27 26  1  0  0  0  0
 27 28  2  0  0  0  0
 28 29  1  0  0  0  0
 29 30  2  0  0  0  0
 30 31  1  0  0  0  0
 31 32  2  0  0  0  0
 13 32  1  0  0  0  0
 32 27  1  0  0  0  0
M  CHG  2   6   1   7  -1
M  END
> <RowID>
344

> <Original_SMILES>
CC1=CC=C(C=C1N=NC1=C(O)C(=CC2=CC=CC=C21)C(=O)NC1C=CC=CC=1)[N+]([O-])=O

> <Canonical_QSARr>
CC1=CC=C(C=C1N=NC1=C(O)C(=CC2=CC=CC=C21)C(=O)NC1C=CC=CC=1)[N+]([O-])=O

> <InChI_Code_QSARr>
InChI=1S/C24H18N4O4/c1-15-11-12-18(28(31)32)14-21(15)26-27-22-19-10-6-5-7-16(19)13-20(23(22)29)24(30)25-17-8-3-2-4-9-17/h2-14,29H,1H3,(H,25,30)

> <InChI Key_QSARr>
XYZMEPHFXJHGIX-UHFFFAOYSA-N

> <Salt_Solvent>


> <Salt_Solvent_ID>
0

> <Number of connected components>
1

$$$$
Molecule_345
  Mrv2316 01072400032D          

 12 13  0  0  0  0            999 V2000
    2.7845    2.3479    0.0000 C   0  0  0  0  0  0  0  0  0  0  0  0
    2.0701    1.9354    0.0000 C   0  0  0  0  0  0  0  0  0  0  0  0
    1.3556    2.3479    0.0000 C   0  0  0  0  0  0  0  0  0  0  0  0
    0.6411    1.9354    0.0000 C   0  0  0  0  0  0  0  0  0  0  0  0
   -0.1435    2.1903    0.0000 N   0  0  0  0  0  0  0  0  0  0  0  0
   -0.6284    1.5229    0.0000 C   0  0  0  0  0  0  0  0  0  0  0  0
   -1.4534    1.5229    0.0000 O   0  0  0  0  0  0  0  0  0  0  0  0
   -0.1435    0.8555    0.0000 N   0  0  0  0  0  0  0  0  0  0  0  0
    0.6411    1.1104    0.0000 C   0  0  0  0  0  0  0  0  0  0  0  0
    1.3556    0.6979    0.0000 C   0  0  0  0  0  0  0  0  0  0  0  0
    2.0701    1.1104    0.0000 C   0  0  0  0  0  0  0  0  0  0  0  0
    2.7845    0.6979    0.0000 N   0  0  0  0  0  0  0  0  0  0  0  0
  1  2  1  0  0  0  0
  3  2  2  0  0  0  0
  4  3  1  0  0  0  0
  4  5  1  0  0  0  0
  5  6  2  0  0  0  0
  6  7  1  0  0  0  0
  6  8  1  0  0  0  0
  8  9  1  0  0  0  0
  9  4  2  0  0  0  0
 10  9  1  0  0  0  0
 11 10  2  0  0  0  0
  2 11  1  0  0  0  0
 11 12  1  0  0  0  0
M  END
> <RowID>
345

> <Original_SMILES>
CC1=CC2N=C(O)NC=2C=C1N

> <Canonical_QSARr>
CC1=CC2N=C(O)NC=2C=C1N

> <InChI_Code_QSARr>
InChI=1S/C8H9N3O/c1-4-2-6-7(3-5(4)9)11-8(12)10-6/h2-3H,9H2,1H3,(H2,10,11,12)

> <InChI Key_QSARr>
ZCXIPVIGYBHUTQ-UHFFFAOYSA-N

> <Salt_Solvent>


> <Salt_Solvent_ID>
0

> <Number of connected components>
1

$$$$
Molecule_346
  Mrv2316 01072400032D          

 13 13  0  0  0  0            999 V2000
    1.7587    0.2538    0.0000 N   0  0  0  0  0  0  0  0  0  0  0  0
    1.0442    0.6663    0.0000 C   0  0  0  0  0  0  0  0  0  0  0  0
    1.0442    1.4913    0.0000 C   0  0  0  0  0  0  0  0  0  0  0  0
    0.3298    1.9038    0.0000 C   0  0  0  0  0  0  0  0  0  0  0  0
    0.3298    2.7288    0.0000 Cl  0  0  0  0  0  0  0  0  0  0  0  0
   -0.3847    1.4913    0.0000 C   0  0  0  0  0  0  0  0  0  0  0  0
   -1.0992    1.9038    0.0000 Cl  0  0  0  0  0  0  0  0  0  0  0  0
   -0.3847    0.6663    0.0000 C   0  0  0  0  0  0  0  0  0  0  0  0
    0.3298    0.2538    0.0000 C   0  0  0  0  0  0  0  0  0  0  0  0
    0.3298   -0.5712    0.0000 S   0  0  0  0  0  0  0  0  0  0  0  0
    0.3298   -1.3962    0.0000 O   0  0  0  0  0  0  0  0  0  0  0  0
   -0.4952   -0.5712    0.0000 O   0  0  0  0  0  0  0  0  0  0  0  0
    1.1548   -0.5712    0.0000 O   0  0  0  0  0  0  0  0  0  0  0  0
  1  2  1  0  0  0  0
  3  2  1  0  0  0  0
  4  3  2  0  0  0  0
  4  5  1  0  0  0  0
  6  4  1  0  0  0  0
  6  7  1  0  0  0  0
  8  6  2  0  0  0  0
  9  8  1  0  0  0  0
  2  9  2  0  0  0  0
  9 10  1  0  0  0  0
 10 11  1  0  0  0  0
 10 12  2  0  0  0  0
 10 13  2  0  0  0  0
M  END
> <RowID>
346

> <Original_SMILES>
NC1C=C(Cl)C(Cl)=CC=1S(O)(=O)=O

> <Canonical_QSARr>
NC1C=C(Cl)C(Cl)=CC=1S(O)(=O)=O

> <InChI_Code_QSARr>
InChI=1S/C6H5Cl2NO3S/c7-3-1-5(9)6(2-4(3)8)13(10,11)12/h1-2H,9H2,(H,10,11,12)

> <InChI Key_QSARr>
AKLDPNVZTZIVFA-UHFFFAOYSA-N

> <Salt_Solvent>


> <Salt_Solvent_ID>
0

> <Number of connected components>
1

$$$$
Molecule_347
  Mrv2316 01072400032D          

 17 18  0  0  0  0            999 V2000
   -0.1105   -1.2375    0.0000 C   0  0  0  0  0  0  0  0  0  0  0  0
    0.7145   -1.2375    0.0000 C   0  0  0  0  0  0  0  0  0  0  0  0
    1.5395   -1.2375    0.0000 C   0  0  0  0  0  0  0  0  0  0  0  0
    0.7145   -0.4125    0.0000 C   0  0  0  0  0  0  0  0  0  0  0  0
    1.4289    0.0000    0.0000 C   0  0  0  0  0  0  0  0  0  0  0  0
    1.4289    0.8250    0.0000 C   0  0  0  0  0  0  0  0  0  0  0  0
    0.7145    1.2375    0.0000 C   0  0  0  0  0  0  0  0  0  0  0  0
    0.7145    2.0625    0.0000 O   0  0  0  0  0  0  0  0  0  0  0  0
    0.0000    0.8250    0.0000 C   0  0  0  0  0  0  0  0  0  0  0  0
    0.0000    0.0000    0.0000 C   0  0  0  0  0  0  0  0  0  0  0  0
    0.7145   -2.0625    0.0000 C   0  0  0  0  0  0  0  0  0  0  0  0
    0.0000   -2.4750    0.0000 C   0  0  0  0  0  0  0  0  0  0  0  0
    0.0000   -3.3000    0.0000 C   0  0  0  0  0  0  0  0  0  0  0  0
    0.7145   -3.7125    0.0000 C   0  0  0  0  0  0  0  0  0  0  0  0
    0.7145   -4.5375    0.0000 O   0  0  0  0  0  0  0  0  0  0  0  0
    1.4289   -3.3000    0.0000 C   0  0  0  0  0  0  0  0  0  0  0  0
    1.4289   -2.4750    0.0000 C   0  0  0  0  0  0  0  0  0  0  0  0
  1  2  1  0  0  0  0
  2  3  1  0  0  0  0
  2  4  1  0  0  0  0
  5  4  1  0  0  0  0
  6  5  1  0  0  0  0
  7  6  1  0  0  0  0
  7  8  1  0  0  0  0
  9  7  1  0  0  0  0
 10  9  1  0  0  0  0
  4 10  1  0  0  0  0
  2 11  1  0  0  0  0
 12 11  1  0  0  0  0
 13 12  1  0  0  0  0
 14 13  1  0  0  0  0
 14 15  1  0  0  0  0
 16 14  1  0  0  0  0
 17 16  1  0  0  0  0
 11 17  1  0  0  0  0
M  END
> <RowID>
347

> <Original_SMILES>
CC(C)(C1CCC(O)CC1)C1CCC(O)CC1

> <Canonical_QSARr>
CC(C)(C1CCC(O)CC1)C1CCC(O)CC1

> <InChI_Code_QSARr>
InChI=1S/C15H28O2/c1-15(2,11-3-7-13(16)8-4-11)12-5-9-14(17)10-6-12/h11-14,16-17H,3-10H2,1-2H3

> <InChI Key_QSARr>
CDBAMNGURPMUTG-UHFFFAOYSA-N

> <Salt_Solvent>


> <Salt_Solvent_ID>
0

> <Number of connected components>
1

$$$$
Molecule_348
  Mrv2316 01072400032D          

  7  6  0  0  0  0            999 V2000
   -0.1914    0.7145    0.0000 C   0  0  0  0  0  0  0  0  0  0  0  0
    0.5230    1.1270    0.0000 O   0  0  0  0  0  0  0  0  0  0  0  0
    1.2375    0.7145    0.0000 C   0  0  0  0  0  0  0  0  0  0  0  0
    1.2375   -0.1105    0.0000 O   0  0  0  0  0  0  0  0  0  0  0  0
    1.9520    1.1270    0.0000 O   0  0  0  0  0  0  0  0  0  0  0  0
    2.6664    0.7145    0.0000 C   0  0  0  0  0  0  0  0  0  0  0  0
    3.3809    1.1270    0.0000 C   0  0  0  0  0  0  0  0  0  0  0  0
  1  2  1  0  0  0  0
  2  3  1  0  0  0  0
  3  4  2  0  0  0  0
  3  5  1  0  0  0  0
  5  6  1  0  0  0  0
  6  7  1  0  0  0  0
M  END
> <RowID>
348

> <Original_SMILES>
COC(=O)OCC

> <Canonical_QSARr>
COC(=O)OCC

> <InChI_Code_QSARr>
InChI=1S/C4H8O3/c1-3-7-4(5)6-2/h3H2,1-2H3

> <InChI Key_QSARr>
JBTWLSYIZRCDFO-UHFFFAOYSA-N

> <Salt_Solvent>


> <Salt_Solvent_ID>
0

> <Number of connected components>
1

$$$$
Molecule_349
  Mrv2316 01072400032D          

 20 19  0  0  0  0            999 V2000
    3.5211    2.8579    0.0000 O   0  0  0  0  0  0  0  0  0  0  0  0
    4.2355    3.2704    0.0000 C   0  0  0  0  0  0  0  0  0  0  0  0
    4.2355    4.0954    0.0000 O   0  0  0  0  0  0  0  0  0  0  0  0
    4.9500    2.8579    0.0000 C   0  0  0  0  0  0  0  0  0  0  0  0
    5.6645    3.2704    0.0000 C   0  0  0  0  0  0  0  0  0  0  0  0
    6.3789    2.8579    0.0000 N   0  0  0  0  0  0  0  0  0  0  0  0
    7.0934    3.2704    0.0000 C   0  0  0  0  0  0  0  0  0  0  0  0
    7.8079    2.8579    0.0000 C   0  0  0  0  0  0  0  0  0  0  0  0
    8.5224    3.2704    0.0000 N   0  0  0  0  0  0  0  0  0  0  0  0
    9.2368    2.8579    0.0000 C   0  0  0  0  0  0  0  0  0  0  0  0
    9.9513    3.2704    0.0000 C   0  0  0  0  0  0  0  0  0  0  0  0
   10.6658    2.8579    0.0000 C   0  0  0  0  0  0  0  0  0  0  0  0
   11.3802    3.2704    0.0000 O   0  0  0  0  0  0  0  0  0  0  0  0
   10.6658    2.0329    0.0000 O   0  0  0  0  0  0  0  0  0  0  0  0
    9.2368    2.0329    0.0000 C   0  0  0  0  0  0  0  0  0  0  0  0
    9.9513    1.6204    0.0000 O   0  0  0  0  0  0  0  0  0  0  0  0
    8.5224    1.6204    0.0000 O   0  0  0  0  0  0  0  0  0  0  0  0
    5.6645    4.0954    0.0000 C   0  0  0  0  0  0  0  0  0  0  0  0
    6.3789    4.5079    0.0000 O   0  0  0  0  0  0  0  0  0  0  0  0
    4.9500    4.5079    0.0000 O   0  0  0  0  0  0  0  0  0  0  0  0
  1  2  1  0  0  0  0
  2  3  2  0  0  0  0
  2  4  1  0  0  0  0
  4  5  1  0  0  0  0
  5  6  1  0  0  0  0
  6  7  1  0  0  0  0
  7  8  1  0  0  0  0
  8  9  1  0  0  0  0
  9 10  1  0  0  0  0
 10 11  1  0  0  0  0
 11 12  1  0  0  0  0
 12 13  1  0  0  0  0
 12 14  2  0  0  0  0
 10 15  1  0  0  0  0
 15 16  1  0  0  0  0
 15 17  2  0  0  0  0
  5 18  1  0  0  0  0
 18 19  1  0  0  0  0
 18 20  2  0  0  0  0
M  END
> <RowID>
349

> <Original_SMILES>
OC(=O)CC(NCCNC(CC(O)=O)C(O)=O)C(O)=O

> <Canonical_QSARr>
OC(=O)CC(NCCNC(CC(O)=O)C(O)=O)C(O)=O

> <InChI_Code_QSARr>
InChI=1S/C10H16N2O8/c13-7(14)3-5(9(17)18)11-1-2-12-6(10(19)20)4-8(15)16/h5-6,11-12H,1-4H2,(H,13,14)(H,15,16)(H,17,18)(H,19,20)

> <InChI Key_QSARr>
VKZRWSNIWNFCIQ-UHFFFAOYSA-N

> <Salt_Solvent>


> <Salt_Solvent_ID>
0

> <Number of connected components>
1

$$$$
Molecule_350
  Mrv2316 01072400032D          

 11 12  0  0  0  0            999 V2000
    0.0000   -1.6500    0.0000 O   0  0  0  0  0  0  0  0  0  0  0  0
    0.7145   -1.2375    0.0000 C   0  0  0  0  0  0  0  0  0  0  0  0
    0.7145   -0.4125    0.0000 C   0  0  0  0  0  0  0  0  0  0  0  0
    1.4289    0.0000    0.0000 C   0  0  0  0  0  0  0  0  0  0  0  0
    2.1434   -0.4125    0.0000 C   0  0  0  0  0  0  0  0  0  0  0  0
    2.8579    0.0000    0.0000 C   0  0  0  0  0  0  0  0  0  0  0  0
    3.5724   -0.4125    0.0000 C   0  0  0  0  0  0  0  0  0  0  0  0
    3.5724   -1.2375    0.0000 C   0  0  0  0  0  0  0  0  0  0  0  0
    2.8579   -1.6500    0.0000 C   0  0  0  0  0  0  0  0  0  0  0  0
    2.1434   -1.2375    0.0000 C   0  0  0  0  0  0  0  0  0  0  0  0
    1.4289   -1.6500    0.0000 O   0  0  0  0  0  0  0  0  0  0  0  0
  1  2  2  0  0  0  0
  3  2  1  0  0  0  0
  4  3  1  0  0  0  0
  5  4  1  0  0  0  0
  5  6  1  0  0  0  0
  6  7  2  0  0  0  0
  7  8  1  0  0  0  0
  8  9  2  0  0  0  0
  9 10  1  0  0  0  0
 10  5  2  0  0  0  0
 11 10  1  0  0  0  0
  2 11  1  0  0  0  0
M  END
> <RowID>
350

> <Original_SMILES>
O=C1CCC2C=CC=CC=2O1

> <Canonical_QSARr>
O=C1CCC2C=CC=CC=2O1

> <InChI_Code_QSARr>
InChI=1S/C9H8O2/c10-9-6-5-7-3-1-2-4-8(7)11-9/h1-4H,5-6H2

> <InChI Key_QSARr>
VMUXSMXIQBNMGZ-UHFFFAOYSA-N

> <Salt_Solvent>


> <Salt_Solvent_ID>
0

> <Number of connected components>
1

$$$$
Molecule_351
  Mrv2316 01072400032D          

 19 18  0  0  0  0            999 V2000
    5.0627    1.0005    0.0000 O   0  0  0  0  0  0  0  0  0  0  0  0
    5.8729    1.1564    0.0000 C   0  0  0  0  0  0  0  0  0  0  0  0
    6.4129    0.5328    0.0000 C   0  0  0  0  0  0  0  0  0  0  0  0
    6.1429   -0.2467    0.0000 N   0  0  0  0  0  0  0  0  0  0  0  0
    5.3328   -0.4027    0.0000 C   0  0  0  0  0  0  0  0  0  0  0  0
    5.0627   -1.1822    0.0000 C   0  0  0  0  0  0  0  0  0  0  0  0
    4.2526   -1.3381    0.0000 N   0  0  0  0  0  0  0  0  0  0  0  0
    3.9825   -2.1177    0.0000 C   0  0  0  0  0  0  0  0  0  0  0  0
    4.5226   -2.7413    0.0000 C   0  0  0  0  0  0  0  0  0  0  0  0
    5.3328   -2.5854    0.0000 O   0  0  0  0  0  0  0  0  0  0  0  0
    4.2526   -3.5209    0.0000 O   0  0  0  0  0  0  0  0  0  0  0  0
    3.7125   -0.7145    0.0000 C   0  0  0  0  0  0  0  0  0  0  0  0
    2.9024   -0.8704    0.0000 C   0  0  0  0  0  0  0  0  0  0  0  0
    2.3623   -0.2467    0.0000 O   0  0  0  0  0  0  0  0  0  0  0  0
    2.6323   -1.6499    0.0000 O   0  0  0  0  0  0  0  0  0  0  0  0
    6.6830   -0.8704    0.0000 C   0  0  0  0  0  0  0  0  0  0  0  0
    7.4931   -0.7145    0.0000 C   0  0  0  0  0  0  0  0  0  0  0  0
    7.7632    0.0651    0.0000 O   0  0  0  0  0  0  0  0  0  0  0  0
    8.0332   -1.3381    0.0000 O   0  0  0  0  0  0  0  0  0  0  0  0
  1  2  1  0  0  0  0
  2  3  1  0  0  0  0
  3  4  1  0  0  0  0
  4  5  1  0  0  0  0
  5  6  1  0  0  0  0
  6  7  1  0  0  0  0
  7  8  1  0  0  0  0
  8  9  1  0  0  0  0
  9 10  1  0  0  0  0
  9 11  2  0  0  0  0
  7 12  1  0  0  0  0
 12 13  1  0  0  0  0
 13 14  1  0  0  0  0
 13 15  2  0  0  0  0
  4 16  1  0  0  0  0
 16 17  1  0  0  0  0
 17 18  1  0  0  0  0
 17 19  2  0  0  0  0
M  END
> <RowID>
351

> <Original_SMILES>
[Na+].[Fe+3].[O-]CCN(CC([O-])=O)CCN(CC([O-])=O)CC([O-])=O

> <Canonical_QSARr>
OCCN(CC(O)=O)CCN(CC(O)=O)CC(O)=O

> <InChI_Code_QSARr>
InChI=1S/C10H18N2O7/c13-4-3-11(5-8(14)15)1-2-12(6-9(16)17)7-10(18)19/h13H,1-7H2,(H,14,15)(H,16,17)(H,18,19)

> <InChI Key_QSARr>
URDCARMUOSMFFI-UHFFFAOYSA-N

> <Salt_Solvent>
[Na+].[Fe+3]

> <Salt_Solvent_ID>
185

> <Number of connected components>
3

$$$$
Molecule_352
  Mrv2316 01072400032D          

 17 16  0  0  0  0            999 V2000
    5.9961    4.2868    0.0000 C   0  0  0  0  0  0  0  0  0  0  0  0
    6.7105    4.6993    0.0000 C   0  0  0  0  0  0  0  0  0  0  0  0
    7.4250    4.2868    0.0000 C   0  0  0  0  0  0  0  0  0  0  0  0
    8.1395    4.6993    0.0000 C   0  0  0  0  0  0  0  0  0  0  0  0
    8.8539    4.2868    0.0000 C   0  0  0  0  0  0  0  0  0  0  0  0
    9.5684    4.6993    0.0000 C   0  0  0  0  0  0  0  0  0  0  0  0
   10.2829    4.2868    0.0000 C   0  0  0  0  0  0  0  0  0  0  0  0
   10.9974    4.6993    0.0000 C   0  0  0  0  0  0  0  0  0  0  0  0
   11.7118    4.2868    0.0000 C   0  0  0  0  0  0  0  0  0  0  0  0
   12.4263    4.6993    0.0000 C   0  0  0  0  0  0  0  0  0  0  0  0
   13.1408    4.2868    0.0000 C   0  0  0  0  0  0  0  0  0  0  0  0
   13.8552    4.6993    0.0000 C   0  0  0  0  0  0  0  0  0  0  0  0
   14.5697    4.2868    0.0000 C   0  0  0  0  0  0  0  0  0  0  0  0
   15.2842    4.6993    0.0000 C   0  0  0  0  0  0  0  0  0  0  0  0
   15.9987    4.2868    0.0000 N   0  0  0  0  0  0  0  0  0  0  0  0
   16.7131    4.6993    0.0000 C   0  0  0  0  0  0  0  0  0  0  0  0
   15.9987    3.4618    0.0000 C   0  0  0  0  0  0  0  0  0  0  0  0
  1  2  1  0  0  0  0
  2  3  1  0  0  0  0
  3  4  1  0  0  0  0
  4  5  1  0  0  0  0
  5  6  1  0  0  0  0
  6  7  1  0  0  0  0
  7  8  1  0  0  0  0
  8  9  1  0  0  0  0
  9 10  1  0  0  0  0
 10 11  1  0  0  0  0
 11 12  1  0  0  0  0
 12 13  1  0  0  0  0
 13 14  1  0  0  0  0
 14 15  1  0  0  0  0
 15 16  1  0  0  0  0
 15 17  1  0  0  0  0
M  END
> <RowID>
352

> <Original_SMILES>
CCCCCCCCCCCCCCN(C)C

> <Canonical_QSARr>
CCCCCCCCCCCCCCN(C)C

> <InChI_Code_QSARr>
InChI=1S/C16H35N/c1-4-5-6-7-8-9-10-11-12-13-14-15-16-17(2)3/h4-16H2,1-3H3

> <InChI Key_QSARr>
SFBHPFQSSDCYSL-UHFFFAOYSA-N

> <Salt_Solvent>


> <Salt_Solvent_ID>
0

> <Number of connected components>
1

$$$$
Molecule_353
  Mrv2316 01072400032D          

 18 17  0  0  0  0            999 V2000
    5.9961    4.2868    0.0000 C   0  0  0  0  0  0  0  0  0  0  0  0
    6.7105    4.6993    0.0000 C   0  0  0  0  0  0  0  0  0  0  0  0
    7.4250    4.2868    0.0000 C   0  0  0  0  0  0  0  0  0  0  0  0
    8.1395    4.6993    0.0000 C   0  0  0  0  0  0  0  0  0  0  0  0
    8.8540    4.2868    0.0000 O   0  0  0  0  0  0  0  0  0  0  0  0
    9.5684    4.6993    0.0000 C   0  0  0  0  0  0  0  0  0  0  0  0
    9.5684    5.5243    0.0000 O   0  0  0  0  0  0  0  0  0  0  0  0
   10.2829    4.2868    0.0000 C   0  0  0  0  0  0  0  0  0  0  0  0
   10.9974    4.6993    0.0000 C   0  0  0  0  0  0  0  0  0  0  0  0
   11.7118    4.2868    0.0000 C   0  0  0  0  0  0  0  0  0  0  0  0
   12.4263    4.6993    0.0000 C   0  0  0  0  0  0  0  0  0  0  0  0
   13.1408    4.2868    0.0000 C   0  0  0  0  0  0  0  0  0  0  0  0
   13.1408    3.4618    0.0000 O   0  0  0  0  0  0  0  0  0  0  0  0
   13.8552    4.6993    0.0000 O   0  0  0  0  0  0  0  0  0  0  0  0
   14.5697    4.2868    0.0000 C   0  0  0  0  0  0  0  0  0  0  0  0
   15.2842    4.6993    0.0000 C   0  0  0  0  0  0  0  0  0  0  0  0
   15.9987    4.2868    0.0000 C   0  0  0  0  0  0  0  0  0  0  0  0
   16.7131    4.6993    0.0000 C   0  0  0  0  0  0  0  0  0  0  0  0
  1  2  1  0  0  0  0
  2  3  1  0  0  0  0
  3  4  1  0  0  0  0
  4  5  1  0  0  0  0
  5  6  1  0  0  0  0
  6  7  2  0  0  0  0
  6  8  1  0  0  0  0
  8  9  1  0  0  0  0
  9 10  1  0  0  0  0
 10 11  1  0  0  0  0
 11 12  1  0  0  0  0
 12 13  2  0  0  0  0
 12 14  1  0  0  0  0
 14 15  1  0  0  0  0
 15 16  1  0  0  0  0
 16 17  1  0  0  0  0
 17 18  1  0  0  0  0
M  END
> <RowID>
353

> <Original_SMILES>
CCCCOC(=O)CCCCC(=O)OCCCC

> <Canonical_QSARr>
CCCCOC(=O)CCCCC(=O)OCCCC

> <InChI_Code_QSARr>
InChI=1S/C14H26O4/c1-3-5-11-17-13(15)9-7-8-10-14(16)18-12-6-4-2/h3-12H2,1-2H3

> <InChI Key_QSARr>
XTJFFFGAUHQWII-UHFFFAOYSA-N

> <Salt_Solvent>


> <Salt_Solvent_ID>
0

> <Number of connected components>
1

$$$$
Molecule_354
  Mrv2316 01072400032D          

 12 11  0  0  0  0            999 V2000
    4.8099    0.3020    0.0000 C   0  0  0  0  0  0  0  0  0  0  0  0
    4.0954    0.7145    0.0000 O   0  0  0  0  0  0  0  0  0  0  0  0
    3.3809    0.3020    0.0000 C   0  0  0  0  0  0  0  0  0  0  0  0
    3.3809   -0.5230    0.0000 O   0  0  0  0  0  0  0  0  0  0  0  0
    2.6664    0.7145    0.0000 C   0  0  0  0  0  0  0  0  0  0  0  0
    1.9520    0.3020    0.0000 S   0  0  0  0  0  0  0  0  0  0  0  0
    1.2375    0.7145    0.0000 P   0  0  0  0  0  0  0  0  0  0  0  0
    1.6500    1.4290    0.0000 S   0  0  0  0  0  0  0  0  0  0  0  0
    0.5230    1.1270    0.0000 O   0  0  0  0  0  0  0  0  0  0  0  0
   -0.1914    0.7145    0.0000 C   0  0  0  0  0  0  0  0  0  0  0  0
    0.8250    0.0000    0.0000 O   0  0  0  0  0  0  0  0  0  0  0  0
    0.0000    0.0000    0.0000 C   0  0  0  0  0  0  0  0  0  0  0  0
  1  2  1  0  0  0  0
  2  3  1  0  0  0  0
  3  4  2  0  0  0  0
  3  5  1  0  0  0  0
  5  6  1  0  0  0  0
  6  7  1  0  0  0  0
  7  8  2  0  0  0  0
  7  9  1  0  0  0  0
  9 10  1  0  0  0  0
  7 11  1  0  0  0  0
 11 12  1  0  0  0  0
M  END
> <RowID>
354

> <Original_SMILES>
COC(=O)CSP(=S)(OC)OC

> <Canonical_QSARr>
COC(=O)CSP(=S)(OC)OC

> <InChI_Code_QSARr>
InChI=1S/C5H11O4PS2/c1-7-5(6)4-12-10(11,8-2)9-3/h4H2,1-3H3

> <InChI Key_QSARr>
PLZVCZLWZIJPPO-UHFFFAOYSA-N

> <Salt_Solvent>


> <Salt_Solvent_ID>
0

> <Number of connected components>
1

$$$$
Molecule_355
  Mrv2316 01072400032D          

 20 19  0  0  0  0            999 V2000
    9.1855    6.1283    0.0000 O   0  0  0  0  0  0  0  0  0  0  0  0
    9.9000    5.7158    0.0000 C   0  0  0  0  0  0  0  0  0  0  0  0
    9.9000    4.8908    0.0000 O   0  0  0  0  0  0  0  0  0  0  0  0
   10.6145    6.1283    0.0000 C   0  0  0  0  0  0  0  0  0  0  0  0
   11.3289    5.7158    0.0000 C   0  0  0  0  0  0  0  0  0  0  0  0
   12.0434    6.1283    0.0000 C   0  0  0  0  0  0  0  0  0  0  0  0
   12.7579    5.7158    0.0000 C   0  0  0  0  0  0  0  0  0  0  0  0
   13.4724    6.1283    0.0000 C   0  0  0  0  0  0  0  0  0  0  0  0
   14.1868    5.7158    0.0000 C   0  0  0  0  0  0  0  0  0  0  0  0
   14.9013    6.1283    0.0000 C   0  0  0  0  0  0  0  0  0  0  0  0
   15.6158    5.7158    0.0000 C   0  0  0  0  0  0  0  0  0  0  0  0
   16.3302    6.1283    0.0000 C   0  0  0  0  0  0  0  0  0  0  0  0
   17.0447    5.7158    0.0000 C   0  0  0  0  0  0  0  0  0  0  0  0
   17.7592    6.1283    0.0000 C   0  0  0  0  0  0  0  0  0  0  0  0
   18.4736    5.7158    0.0000 C   0  0  0  0  0  0  0  0  0  0  0  0
   19.1881    6.1283    0.0000 C   0  0  0  0  0  0  0  0  0  0  0  0
   19.9026    5.7158    0.0000 C   0  0  0  0  0  0  0  0  0  0  0  0
   20.6171    6.1283    0.0000 C   0  0  0  0  0  0  0  0  0  0  0  0
   21.3315    5.7158    0.0000 C   0  0  0  0  0  0  0  0  0  0  0  0
   22.0460    6.1283    0.0000 C   0  0  0  0  0  0  0  0  0  0  0  0
  1  2  1  0  0  0  0
  2  3  2  0  0  0  0
  2  4  1  0  0  0  0
  4  5  1  0  0  0  0
  5  6  1  0  0  0  0
  6  7  1  0  0  0  0
  7  8  1  0  0  0  0
  8  9  1  0  0  0  0
  9 10  1  0  0  0  0
 10 11  1  0  0  0  0
 11 12  1  0  0  0  0
 12 13  1  0  0  0  0
 13 14  1  0  0  0  0
 14 15  1  0  0  0  0
 15 16  1  0  0  0  0
 16 17  1  0  0  0  0
 17 18  1  0  0  0  0
 18 19  1  0  0  0  0
 19 20  1  0  0  0  0
M  END
> <RowID>
355

> <Original_SMILES>
[Ca+2].CCCCCCCCCCCCCCCCCC([O-])=O.CCCCCCCCCCCCCCCCCC([O-])=O

> <Canonical_QSARr>
CCCCCCCCCCCCCCCCCC(O)=O

> <InChI_Code_QSARr>
InChI=1S/C18H36O2/c1-2-3-4-5-6-7-8-9-10-11-12-13-14-15-16-17-18(19)20/h2-17H2,1H3,(H,19,20)

> <InChI Key_QSARr>
QIQXTHQIDYTFRH-UHFFFAOYSA-N

> <Salt_Solvent>
[Ca+2]

> <Salt_Solvent_ID>
200

> <Number of connected components>
3

$$$$
Molecule_356
  Mrv2316 01072400032D          

 10 11  0  0  0  0            999 V2000
   -0.1712   -0.6979    0.0000 O   0  0  0  0  0  0  0  0  0  0  0  0
    0.6538   -0.6979    0.0000 C   0  0  0  0  0  0  0  0  0  0  0  0
    1.1387   -0.0305    0.0000 N   0  0  0  0  0  0  0  0  0  0  0  0
    1.9233   -0.2854    0.0000 C   0  0  0  0  0  0  0  0  0  0  0  0
    2.6378    0.1271    0.0000 C   0  0  0  0  0  0  0  0  0  0  0  0
    3.3523   -0.2854    0.0000 C   0  0  0  0  0  0  0  0  0  0  0  0
    3.3523   -1.1104    0.0000 C   0  0  0  0  0  0  0  0  0  0  0  0
    2.6378   -1.5229    0.0000 C   0  0  0  0  0  0  0  0  0  0  0  0
    1.9233   -1.1104    0.0000 C   0  0  0  0  0  0  0  0  0  0  0  0
    1.1387   -1.3653    0.0000 N   0  0  0  0  0  0  0  0  0  0  0  0
  1  2  1  0  0  0  0
  3  2  1  0  0  0  0
  4  3  1  0  0  0  0
  4  5  2  0  0  0  0
  5  6  1  0  0  0  0
  6  7  2  0  0  0  0
  7  8  1  0  0  0  0
  8  9  2  0  0  0  0
  9  4  1  0  0  0  0
 10  9  1  0  0  0  0
  2 10  2  0  0  0  0
M  END
> <RowID>
356

> <Original_SMILES>
OC1NC2=CC=CC=C2N=1

> <Canonical_QSARr>
OC1NC2=CC=CC=C2N=1

> <InChI_Code_QSARr>
InChI=1S/C7H6N2O/c10-7-8-5-3-1-2-4-6(5)9-7/h1-4H,(H2,8,9,10)

> <InChI Key_QSARr>
SILNNFMWIMZVEQ-UHFFFAOYSA-N

> <Salt_Solvent>


> <Salt_Solvent_ID>
0

> <Number of connected components>
1

$$$$
Molecule_357
  Mrv2316 01072400032D          

 12 11  0  0  0  0            999 V2000
    4.1250   -2.8579    0.0000 C   0  0  0  0  0  0  0  0  0  0  0  0
    3.7125   -2.1434    0.0000 C   0  0  0  0  0  0  0  0  0  0  0  0
    4.1250   -1.4289    0.0000 O   0  0  0  0  0  0  0  0  0  0  0  0
    2.8875   -2.1434    0.0000 C   0  0  0  0  0  0  0  0  0  0  0  0
    2.4750   -1.4289    0.0000 C   0  0  0  0  0  0  0  0  0  0  0  0
    3.1895   -1.0164    0.0000 C   0  0  0  0  0  0  0  0  0  0  0  0
    1.7605   -1.8414    0.0000 C   0  0  0  0  0  0  0  0  0  0  0  0
    2.0625   -0.7145    0.0000 N   0  0  0  0  0  0  0  0  0  0  0  0
    1.2375   -0.7145    0.0000 C   0  0  0  0  0  0  0  0  0  0  0  0
    0.8250   -1.4289    0.0000 O   0  0  0  0  0  0  0  0  0  0  0  0
    0.8250    0.0000    0.0000 C   0  0  0  0  0  0  0  0  0  0  0  0
    0.0000    0.0000    0.0000 C   0  0  0  0  0  0  0  0  0  0  0  0
  1  2  1  0  0  0  0
  2  3  2  0  0  0  0
  2  4  1  0  0  0  0
  4  5  1  0  0  0  0
  5  6  1  0  0  0  0
  5  7  1  0  0  0  0
  5  8  1  0  0  0  0
  8  9  1  0  0  0  0
  9 10  2  0  0  0  0
  9 11  1  0  0  0  0
 11 12  2  0  0  0  0
M  END
> <RowID>
357

> <Original_SMILES>
CC(=O)CC(C)(C)NC(=O)C=C

> <Canonical_QSARr>
CC(=O)CC(C)(C)NC(=O)C=C

> <InChI_Code_QSARr>
InChI=1S/C9H15NO2/c1-5-8(12)10-9(3,4)6-7(2)11/h5H,1,6H2,2-4H3,(H,10,12)

> <InChI Key_QSARr>
OMNKZBIFPJNNIO-UHFFFAOYSA-N

> <Salt_Solvent>


> <Salt_Solvent_ID>
0

> <Number of connected components>
1

$$$$
Molecule_358
  Mrv2316 01072400032D          

 14 13  0  0  0  0            999 V2000
    4.7586    3.5724    0.0000 C   0  0  0  0  0  0  0  0  0  0  0  0
    5.4730    3.9849    0.0000 C   0  0  0  0  0  0  0  0  0  0  0  0
    6.1875    3.5724    0.0000 O   0  0  0  0  0  0  0  0  0  0  0  0
    6.9020    3.9849    0.0000 C   0  0  0  0  0  0  0  0  0  0  0  0
    7.6164    3.5724    0.0000 C   0  0  0  0  0  0  0  0  0  0  0  0
    8.3309    3.9849    0.0000 O   0  0  0  0  0  0  0  0  0  0  0  0
    9.0454    3.5724    0.0000 C   0  0  0  0  0  0  0  0  0  0  0  0
    9.7599    3.9849    0.0000 C   0  0  0  0  0  0  0  0  0  0  0  0
   10.4743    3.5724    0.0000 O   0  0  0  0  0  0  0  0  0  0  0  0
   11.1888    3.9849    0.0000 C   0  0  0  0  0  0  0  0  0  0  0  0
   11.9033    3.5724    0.0000 C   0  0  0  0  0  0  0  0  0  0  0  0
   12.6177    3.9849    0.0000 O   0  0  0  0  0  0  0  0  0  0  0  0
   13.3322    3.5724    0.0000 C   0  0  0  0  0  0  0  0  0  0  0  0
   14.0467    3.9849    0.0000 C   0  0  0  0  0  0  0  0  0  0  0  0
  1  2  2  0  0  0  0
  2  3  1  0  0  0  0
  3  4  1  0  0  0  0
  4  5  1  0  0  0  0
  5  6  1  0  0  0  0
  6  7  1  0  0  0  0
  7  8  1  0  0  0  0
  8  9  1  0  0  0  0
  9 10  1  0  0  0  0
 10 11  1  0  0  0  0
 11 12  1  0  0  0  0
 12 13  1  0  0  0  0
 13 14  2  0  0  0  0
M  END
> <RowID>
358

> <Original_SMILES>
C=COCCOCCOCCOC=C

> <Canonical_QSARr>
C=COCCOCCOCCOC=C

> <InChI_Code_QSARr>
InChI=1S/C10H18O4/c1-3-11-5-7-13-9-10-14-8-6-12-4-2/h3-4H,1-2,5-10H2

> <InChI Key_QSARr>
CYIGRWUIQAVBFG-UHFFFAOYSA-N

> <Salt_Solvent>


> <Salt_Solvent_ID>
0

> <Number of connected components>
1

$$$$
Molecule_359
  Mrv2316 01072400032D          

 16 15  0  0  0  0            999 V2000
    6.7105    4.6993    0.0000 C   0  0  0  0  0  0  0  0  0  0  0  0
    7.4250    4.2868    0.0000 C   0  0  0  0  0  0  0  0  0  0  0  0
    8.1395    4.6993    0.0000 C   0  0  0  0  0  0  0  0  0  0  0  0
    8.8539    4.2868    0.0000 C   0  0  0  0  0  0  0  0  0  0  0  0
    9.5684    4.6993    0.0000 C   0  0  0  0  0  0  0  0  0  0  0  0
   10.2829    4.2868    0.0000 C   0  0  0  0  0  0  0  0  0  0  0  0
   10.9974    4.6993    0.0000 C   0  0  0  0  0  0  0  0  0  0  0  0
   11.7118    4.2868    0.0000 C   0  0  0  0  0  0  0  0  0  0  0  0
   12.4263    4.6993    0.0000 C   0  0  0  0  0  0  0  0  0  0  0  0
   13.1408    4.2868    0.0000 C   0  0  0  0  0  0  0  0  0  0  0  0
   13.8552    4.6993    0.0000 C   0  0  0  0  0  0  0  0  0  0  0  0
   14.5697    4.2868    0.0000 C   0  0  0  0  0  0  0  0  0  0  0  0
   14.5697    3.4618    0.0000 O   0  0  0  0  0  0  0  0  0  0  0  0
   15.2842    4.6993    0.0000 O   0  0  0  0  0  0  0  0  0  0  0  0
   15.9987    4.2868    0.0000 C   0  0  0  0  0  0  0  0  0  0  0  0
   16.7131    4.6993    0.0000 C   0  0  0  0  0  0  0  0  0  0  0  0
  1  2  1  0  0  0  0
  2  3  1  0  0  0  0
  3  4  1  0  0  0  0
  4  5  1  0  0  0  0
  5  6  1  0  0  0  0
  6  7  1  0  0  0  0
  7  8  1  0  0  0  0
  8  9  1  0  0  0  0
  9 10  1  0  0  0  0
 10 11  1  0  0  0  0
 11 12  1  0  0  0  0
 12 13  2  0  0  0  0
 12 14  1  0  0  0  0
 14 15  1  0  0  0  0
 15 16  2  0  0  0  0
M  END
> <RowID>
359

> <Original_SMILES>
CCCCCCCCCCCC(=O)OC=C

> <Canonical_QSARr>
CCCCCCCCCCCC(=O)OC=C

> <InChI_Code_QSARr>
InChI=1S/C14H26O2/c1-3-5-6-7-8-9-10-11-12-13-14(15)16-4-2/h4H,2-3,5-13H2,1H3

> <InChI Key_QSARr>
GLVVKKSPKXTQRB-UHFFFAOYSA-N

> <Salt_Solvent>


> <Salt_Solvent_ID>
0

> <Number of connected components>
1

$$$$
Molecule_360
  Mrv2316 01072400032D          

 52 56  0  0  0  0            999 V2000
  -10.9906   -7.2165    0.0000 C   0  0  0  0  0  0  0  0  0  0  0  0
  -10.2761   -6.8040    0.0000 C   0  0  0  0  0  0  0  0  0  0  0  0
  -10.2761   -5.9790    0.0000 N   0  0  0  0  0  0  0  0  0  0  0  0
  -10.9906   -5.5665    0.0000 C   0  0  0  0  0  0  0  0  0  0  0  0
  -10.9906   -4.7415    0.0000 C   0  0  0  0  0  0  0  0  0  0  0  0
   -9.5616   -5.5665    0.0000 C   0  0  0  0  0  0  0  0  0  0  0  0
   -9.5616   -4.7415    0.0000 C   0  0  0  0  0  0  0  0  0  0  0  0
   -8.8472   -4.3290    0.0000 C   0  0  0  0  0  0  0  0  0  0  0  0
   -8.8472   -3.5040    0.0000 N   0  0  0  0  0  0  0  0  0  0  0  0
   -8.1327   -3.0915    0.0000 C   0  0  0  0  0  0  0  0  0  0  0  0
   -7.4182   -3.5040    0.0000 N   0  0  0  0  0  0  0  0  0  0  0  0
   -6.7037   -3.0915    0.0000 C   0  0  0  0  0  0  0  0  0  0  0  0
   -5.9893   -3.5040    0.0000 N   0  0  0  0  0  0  0  0  0  0  0  0
   -5.2748   -3.0915    0.0000 C   0  0  0  0  0  0  0  0  0  0  0  0
   -4.5603   -3.5040    0.0000 C   0  0  0  0  0  0  0  0  0  0  0  0
   -3.8459   -3.0915    0.0000 C   0  0  0  0  0  0  0  0  0  0  0  0
   -3.1314   -3.5040    0.0000 N   0  0  0  0  0  0  0  0  0  0  0  0
   -3.1314   -4.3290    0.0000 C   0  0  0  0  0  0  0  0  0  0  0  0
   -2.4169   -4.7415    0.0000 C   0  0  0  0  0  0  0  0  0  0  0  0
   -2.4169   -3.0915    0.0000 C   0  0  0  0  0  0  0  0  0  0  0  0
   -1.7024   -3.5040    0.0000 C   0  0  0  0  0  0  0  0  0  0  0  0
   -6.7037   -2.2665    0.0000 N   0  0  0  0  0  0  0  0  0  0  0  0
   -7.4182   -1.8540    0.0000 C   0  0  0  0  0  0  0  0  0  0  0  0
   -7.4182   -1.0290    0.0000 N   0  0  0  0  0  0  0  0  0  0  0  0
   -6.7037   -0.6165    0.0000 C   0  0  0  0  0  0  0  0  0  0  0  0
   -5.9893   -1.0290    0.0000 C   0  0  0  0  0  0  0  0  0  0  0  0
   -5.2748   -0.6165    0.0000 C   0  0  0  0  0  0  0  0  0  0  0  0
   -5.2748    0.2085    0.0000 C   0  0  0  0  0  0  0  0  0  0  0  0
   -5.9893    0.6210    0.0000 C   0  0  0  0  0  0  0  0  0  0  0  0
   -5.9893    1.4460    0.0000 C   0  0  0  0  0  0  0  0  0  0  0  0
   -5.2748    1.8585    0.0000 C   0  0  0  0  0  0  0  0  0  0  0  0
   -5.2748    2.6835    0.0000 S   0  0  0  0  0  0  0  0  0  0  0  0
   -5.2748    3.5085    0.0000 O   0  0  0  0  0  0  0  0  0  0  0  0
   -4.4498    2.6835    0.0000 O   0  0  0  0  0  0  0  0  0  0  0  0
   -6.0998    2.6835    0.0000 O   0  0  0  0  0  0  0  0  0  0  0  0
   -4.5603    1.4460    0.0000 C   0  0  0  0  0  0  0  0  0  0  0  0
   -4.5603    0.6210    0.0000 C   0  0  0  0  0  0  0  0  0  0  0  0
   -3.8459    0.2085    0.0000 O   0  0  0  0  0  0  0  0  0  0  0  0
   -3.8459    1.8585    0.0000 N   0  0  0  0  0  0  0  0  0  0  0  0
   -3.8459    2.6835    0.0000 N   0  0  0  0  0  0  0  0  0  0  0  0
   -3.1314    3.0960    0.0000 C   0  0  0  0  0  0  0  0  0  0  0  0
   -2.4169    2.6835    0.0000 C   0  0  0  0  0  0  0  0  0  0  0  0
   -1.7024    3.0960    0.0000 C   0  0  0  0  0  0  0  0  0  0  0  0
   -1.7024    3.9210    0.0000 C   0  0  0  0  0  0  0  0  0  0  0  0
   -2.4169    4.3335    0.0000 C   0  0  0  0  0  0  0  0  0  0  0  0
   -2.2454    5.1405    0.0000 N   0  0  0  0  0  0  0  0  0  0  0  0
   -1.4249    5.2267    0.0000 C   0  0  0  0  0  0  0  0  0  0  0  0
   -1.0894    4.4731    0.0000 N   0  0  0  0  0  0  0  0  0  0  0  0
   -1.0124    5.9412    0.0000 O   0  0  0  0  0  0  0  0  0  0  0  0
   -3.1314    3.9210    0.0000 C   0  0  0  0  0  0  0  0  0  0  0  0
   -6.7037    0.2085    0.0000 C   0  0  0  0  0  0  0  0  0  0  0  0
   -8.1327   -2.2665    0.0000 N   0  0  0  0  0  0  0  0  0  0  0  0
  1  2  1  0  0  0  0
  2  3  1  0  0  0  0
  3  4  1  0  0  0  0
  4  5  1  0  0  0  0
  3  6  1  0  0  0  0
  6  7  1  0  0  0  0
  7  8  1  0  0  0  0
  8  9  1  0  0  0  0
  9 10  1  0  0  0  0
 11 10  2  0  0  0  0
 12 11  1  0  0  0  0
 12 13  1  0  0  0  0
 13 14  1  0  0  0  0
 14 15  1  0  0  0  0
 15 16  1  0  0  0  0
 16 17  1  0  0  0  0
 17 18  1  0  0  0  0
 18 19  1  0  0  0  0
 17 20  1  0  0  0  0
 20 21  1  0  0  0  0
 22 12  2  0  0  0  0
 23 22  1  0  0  0  0
 23 24  1  0  0  0  0
 24 25  1  0  0  0  0
 26 25  1  0  0  0  0
 27 26  2  0  0  0  0
 28 27  1  0  0  0  0
 28 29  2  0  0  0  0
 29 30  1  0  0  0  0
 30 31  2  0  0  0  0
 31 32  1  0  0  0  0
 32 33  2  0  0  0  0
 32 34  2  0  0  0  0
 32 35  1  0  0  0  0
 31 36  1  0  0  0  0
 36 37  2  0  0  0  0
 37 28  1  0  0  0  0
 37 38  1  0  0  0  0
 39 36  1  4  0  0  0
 39 40  2  0  0  0  0
 40 41  1  0  0  0  0
 42 41  2  0  0  0  0
 43 42  1  0  0  0  0
 44 43  2  0  0  0  0
 44 45  1  0  0  0  0
 45 46  1  0  0  0  0
 46 47  1  0  0  0  0
 47 48  1  0  0  0  0
 48 44  1  0  0  0  0
 47 49  2  0  0  0  0
 50 45  2  0  0  0  0
 41 50  1  0  0  0  0
 51 29  1  0  0  0  0
 25 51  2  0  0  0  0
 52 23  2  0  0  0  0
 10 52  1  0  0  0  0
M  END
> <RowID>
360

> <Original_SMILES>
CC(O)C(O)=O.CCN(CCCNC1N=C(NC2=CC3C=C(C(N=NC4C=C5NC(=O)NC5=CC=4)=C(O)C=3C=C2)S(O)(=O)=O)N=C(NCCCN(CC)CC)N=1)CC

> <Canonical_QSARr>
CCN(CCCNC1N=C(NC2C=CC3=C(C=C(C(N=NC4=CC=C5NC(=O)NC5=C4)=C3O)S(O)(=O)=O)C=2)N=C(NCCCN(CC)CC)N=1)CC

> <InChI_Code_QSARr>
InChI=1S/C34H46N12O5S/c1-5-45(6-2)17-9-15-35-31-40-32(36-16-10-18-46(7-3)8-4)42-33(41-31)37-23-11-13-25-22(19-23)20-28(52(49,50)51)29(30(25)47)44-43-24-12-14-26-27(21-24)39-34(48)38-26/h11-14,19-21,47H,5-10,15-18H2,1-4H3,(H2,38,39,48)(H,49,50,51)(H3,35,36,37,40,41,42)

> <InChI Key_QSARr>
CAIUTQYXPFOFOE-UHFFFAOYSA-N

> <Salt_Solvent>
CC(C(=O)O)O

> <Salt_Solvent_ID>
2107

> <Number of connected components>
2

$$$$
Molecule_362
  Mrv2316 01072400032D          

 16 18  0  0  0  0            999 V2000
    2.1434    2.0625    0.0000 O   0  0  0  0  0  0  0  0  0  0  0  0
    2.1434    1.2375    0.0000 C   0  0  0  0  0  0  0  0  0  0  0  0
    2.8579    0.8250    0.0000 C   0  0  0  0  0  0  0  0  0  0  0  0
    3.5724    1.2375    0.0000 C   0  0  0  0  0  0  0  0  0  0  0  0
    4.2868    0.8250    0.0000 C   0  0  0  0  0  0  0  0  0  0  0  0
    4.2868   -0.0000    0.0000 C   0  0  0  0  0  0  0  0  0  0  0  0
    3.5724   -0.4125    0.0000 C   0  0  0  0  0  0  0  0  0  0  0  0
    2.8579    0.0000    0.0000 C   0  0  0  0  0  0  0  0  0  0  0  0
    2.1434   -0.4125    0.0000 S   0  0  0  0  0  0  0  0  0  0  0  0
    1.4289    0.0000    0.0000 C   0  0  0  0  0  0  0  0  0  0  0  0
    0.7145   -0.4125    0.0000 C   0  0  0  0  0  0  0  0  0  0  0  0
   -0.0000   -0.0000    0.0000 C   0  0  0  0  0  0  0  0  0  0  0  0
   -0.0000    0.8250    0.0000 C   0  0  0  0  0  0  0  0  0  0  0  0
   -0.7145    1.2375    0.0000 Cl  0  0  0  0  0  0  0  0  0  0  0  0
    0.7145    1.2375    0.0000 C   0  0  0  0  0  0  0  0  0  0  0  0
    1.4289    0.8250    0.0000 C   0  0  0  0  0  0  0  0  0  0  0  0
  1  2  2  0  0  0  0
  3  2  1  0  0  0  0
  3  4  2  0  0  0  0
  4  5  1  0  0  0  0
  5  6  2  0  0  0  0
  6  7  1  0  0  0  0
  7  8  2  0  0  0  0
  8  3  1  0  0  0  0
  9  8  1  0  0  0  0
 10  9  1  0  0  0  0
 10 11  2  0  0  0  0
 11 12  1  0  0  0  0
 12 13  2  0  0  0  0
 13 14  1  0  0  0  0
 13 15  1  0  0  0  0
 15 16  2  0  0  0  0
  2 16  1  0  0  0  0
 16 10  1  0  0  0  0
M  END
> <RowID>
362

> <Original_SMILES>
O=C1C2=CC=CC=C2SC2=CC=C(Cl)C=C21

> <Canonical_QSARr>
O=C1C2=CC=CC=C2SC2=CC=C(Cl)C=C21

> <InChI_Code_QSARr>
InChI=1S/C13H7ClOS/c14-8-5-6-12-10(7-8)13(15)9-3-1-2-4-11(9)16-12/h1-7H

> <InChI Key_QSARr>
ZCDADJXRUCOCJE-UHFFFAOYSA-N

> <Salt_Solvent>


> <Salt_Solvent_ID>
0

> <Number of connected components>
1

$$$$
Molecule_364
  Mrv2316 01072400032D          

  4  3  0  0  0  0            999 V2000
    1.2375    0.7145    0.0000 O   0  0  0  0  0  0  0  0  0  0  0  0
    0.8250   -0.0000    0.0000 C   0  0  0  0  0  0  0  0  0  0  0  0
    1.2375   -0.7145    0.0000 O   0  0  0  0  0  0  0  0  0  0  0  0
    0.0000   -0.0000    0.0000 C   0  0  0  0  0  0  0  0  0  0  0  0
  1  2  1  0  0  0  0
  2  3  2  0  0  0  0
  2  4  1  0  0  0  0
M  END
> <RowID>
364

> <Original_SMILES>
[Ni+2].CC([O-])=O.CC([O-])=O

> <Canonical_QSARr>
CC(O)=O

> <InChI_Code_QSARr>
InChI=1S/C2H4O2/c1-2(3)4/h1H3,(H,3,4)

> <InChI Key_QSARr>
QTBSBXVTEAMEQO-UHFFFAOYSA-N

> <Salt_Solvent>
[Ni+2]

> <Salt_Solvent_ID>
280

> <Number of connected components>
3

$$$$
Molecule_365
  Mrv2316 01072400032D          

 20 21  0  0  0  0            999 V2000
    0.2501   -2.0831    0.0000 C   0  0  0  0  0  0  0  0  0  0  0  0
    0.9645   -1.6706    0.0000 C   0  0  0  0  0  0  0  0  0  0  0  0
    0.9645   -0.8456    0.0000 O   0  0  0  0  0  0  0  0  0  0  0  0
    0.2501   -0.4331    0.0000 C   0  0  0  0  0  0  0  0  0  0  0  0
    0.2501    0.3919    0.0000 C   0  0  0  0  0  0  0  0  0  0  0  0
   -0.4644    0.8044    0.0000 C   0  0  0  0  0  0  0  0  0  0  0  0
   -0.4644    1.6294    0.0000 Br  0  0  0  0  0  0  0  0  0  0  0  0
   -1.1789    0.3919    0.0000 C   0  0  0  0  0  0  0  0  0  0  0  0
   -1.1789   -0.4331    0.0000 N   0  0  0  0  0  0  0  0  0  0  0  0
   -0.4644   -0.8456    0.0000 C   0  0  0  0  0  0  0  0  0  0  0  0
   -0.4644   -1.6706    0.0000 N   0  0  0  0  0  0  0  0  0  0  0  0
    1.6790   -2.0831    0.0000 C   0  0  0  0  0  0  0  0  0  0  0  0
    1.6790   -2.9081    0.0000 C   0  0  0  0  0  0  0  0  0  0  0  0
    0.9645   -3.3206    0.0000 Cl  0  0  0  0  0  0  0  0  0  0  0  0
    2.3935   -3.3206    0.0000 C   0  0  0  0  0  0  0  0  0  0  0  0
    2.3935   -4.1456    0.0000 F   0  0  0  0  0  0  0  0  0  0  0  0
    3.1079   -2.9081    0.0000 C   0  0  0  0  0  0  0  0  0  0  0  0
    3.1079   -2.0831    0.0000 C   0  0  0  0  0  0  0  0  0  0  0  0
    2.3935   -1.6706    0.0000 C   0  0  0  0  0  0  0  0  0  0  0  0
    2.3935   -0.8456    0.0000 Cl  0  0  0  0  0  0  0  0  0  0  0  0
  1  2  1  0  0  0  0
  2  3  1  0  0  0  0
  3  4  1  0  0  0  0
  5  4  1  0  0  0  0
  6  5  2  0  0  0  0
  6  7  1  0  0  0  0
  8  6  1  0  0  0  0
  9  8  2  0  0  0  0
 10  9  1  0  0  0  0
  4 10  2  0  0  0  0
 10 11  1  0  0  0  0
  2 12  1  0  0  0  0
 13 12  1  0  0  0  0
 13 14  1  0  0  0  0
 15 13  2  0  0  0  0
 15 16  1  0  0  0  0
 17 15  1  0  0  0  0
 18 17  2  0  0  0  0
 19 18  1  0  0  0  0
 12 19  2  0  0  0  0
 19 20  1  0  0  0  0
M  END
> <RowID>
365

> <Original_SMILES>
CC(OC1C=C(Br)C=NC=1N)C1C(Cl)=C(F)C=CC=1Cl

> <Canonical_QSARr>
CC(OC1C=C(Br)C=NC=1N)C1C(Cl)=C(F)C=CC=1Cl

> <InChI_Code_QSARr>
InChI=1S/C13H10BrCl2FN2O/c1-6(11-8(15)2-3-9(17)12(11)16)20-10-4-7(14)5-19-13(10)18/h2-6H,1H3,(H2,18,19)

> <InChI Key_QSARr>
URFUZAZEKBBCEY-UHFFFAOYSA-N

> <Salt_Solvent>


> <Salt_Solvent_ID>
0

> <Number of connected components>
1

$$$$
Molecule_366
  Mrv2316 01072400032D          

 14 13  0  0  0  0            999 V2000
    4.7586    3.5724    0.0000 C   0  0  0  0  0  0  0  0  0  0  0  0
    5.4730    3.9849    0.0000 O   0  0  0  0  0  0  0  0  0  0  0  0
    6.1875    3.5724    0.0000 C   0  0  0  0  0  0  0  0  0  0  0  0
    6.9020    3.9849    0.0000 C   0  0  0  0  0  0  0  0  0  0  0  0
    7.6164    3.5724    0.0000 O   0  0  0  0  0  0  0  0  0  0  0  0
    8.3309    3.9849    0.0000 C   0  0  0  0  0  0  0  0  0  0  0  0
    9.0454    3.5724    0.0000 C   0  0  0  0  0  0  0  0  0  0  0  0
    9.7599    3.9849    0.0000 O   0  0  0  0  0  0  0  0  0  0  0  0
   10.4743    3.5724    0.0000 C   0  0  0  0  0  0  0  0  0  0  0  0
   11.1888    3.9849    0.0000 C   0  0  0  0  0  0  0  0  0  0  0  0
   11.9033    3.5724    0.0000 O   0  0  0  0  0  0  0  0  0  0  0  0
   12.6177    3.9849    0.0000 C   0  0  0  0  0  0  0  0  0  0  0  0
   13.3322    3.5724    0.0000 C   0  0  0  0  0  0  0  0  0  0  0  0
   14.0467    3.9849    0.0000 O   0  0  0  0  0  0  0  0  0  0  0  0
  1  2  1  0  0  0  0
  2  3  1  0  0  0  0
  3  4  1  0  0  0  0
  4  5  1  0  0  0  0
  5  6  1  0  0  0  0
  6  7  1  0  0  0  0
  7  8  1  0  0  0  0
  8  9  1  0  0  0  0
  9 10  1  0  0  0  0
 10 11  1  0  0  0  0
 11 12  1  0  0  0  0
 12 13  1  0  0  0  0
 13 14  1  0  0  0  0
M  END
> <RowID>
366

> <Original_SMILES>
COCCOCCOCCOCCO

> <Canonical_QSARr>
COCCOCCOCCOCCO

> <InChI_Code_QSARr>
InChI=1S/C9H20O5/c1-11-4-5-13-8-9-14-7-6-12-3-2-10/h10H,2-9H2,1H3

> <InChI Key_QSARr>
ZNYRFEPBTVGZDN-UHFFFAOYSA-N

> <Salt_Solvent>


> <Salt_Solvent_ID>
0

> <Number of connected components>
1

$$$$
Molecule_367
  Mrv2316 01072400032D          

 13 12  0  0  0  0            999 V2000
    3.5211    2.8579    0.0000 C   0  0  0  0  0  0  0  0  0  0  0  0
    4.2355    3.2704    0.0000 C   0  0  0  0  0  0  0  0  0  0  0  0
    4.9500    2.8579    0.0000 C   0  0  0  0  0  0  0  0  0  0  0  0
    5.6645    3.2704    0.0000 C   0  0  0  0  0  0  0  0  0  0  0  0
    6.3789    2.8579    0.0000 C   0  0  0  0  0  0  0  0  0  0  0  0
    7.0934    3.2704    0.0000 C   0  0  0  0  0  0  0  0  0  0  0  0
    7.8079    2.8579    0.0000 C   0  0  0  0  0  0  0  0  0  0  0  0
    8.5224    3.2704    0.0000 C   0  0  0  0  0  0  0  0  0  0  0  0
    9.2368    2.8579    0.0000 C   0  0  0  0  0  0  0  0  0  0  0  0
    9.9513    3.2704    0.0000 C   0  0  0  0  0  0  0  0  0  0  0  0
   10.6658    2.8579    0.0000 N   0  0  0  0  0  0  0  0  0  0  0  0
   11.3802    3.2704    0.0000 C   0  0  0  0  0  0  0  0  0  0  0  0
   10.6658    2.0329    0.0000 C   0  0  0  0  0  0  0  0  0  0  0  0
  1  2  1  0  0  0  0
  2  3  1  0  0  0  0
  3  4  1  0  0  0  0
  4  5  1  0  0  0  0
  5  6  1  0  0  0  0
  6  7  1  0  0  0  0
  7  8  1  0  0  0  0
  8  9  1  0  0  0  0
  9 10  1  0  0  0  0
 10 11  1  0  0  0  0
 11 12  1  0  0  0  0
 11 13  1  0  0  0  0
M  END
> <RowID>
367

> <Original_SMILES>
CCCCCCCCCCN(C)C

> <Canonical_QSARr>
CCCCCCCCCCN(C)C

> <InChI_Code_QSARr>
InChI=1S/C12H27N/c1-4-5-6-7-8-9-10-11-12-13(2)3/h4-12H2,1-3H3

> <InChI Key_QSARr>
YWWNNLPSZSEZNZ-UHFFFAOYSA-N

> <Salt_Solvent>


> <Salt_Solvent_ID>
0

> <Number of connected components>
1

$$$$
Molecule_368
  Mrv2316 01072400032D          

 30 29  0  0  0  0            999 V2000
    9.7086    6.4302    0.0000 C   0  0  0  0  0  0  0  0  0  0  0  0
   10.4230    6.8427    0.0000 C   0  0  0  0  0  0  0  0  0  0  0  0
   11.1375    6.4302    0.0000 C   0  0  0  0  0  0  0  0  0  0  0  0
   11.8520    6.8427    0.0000 C   0  0  0  0  0  0  0  0  0  0  0  0
   12.5664    6.4302    0.0000 C   0  0  0  0  0  0  0  0  0  0  0  0
   13.2809    6.8427    0.0000 C   0  0  0  0  0  0  0  0  0  0  0  0
   13.9954    6.4302    0.0000 C   0  0  0  0  0  0  0  0  0  0  0  0
   14.7099    6.8427    0.0000 O   0  0  0  0  0  0  0  0  0  0  0  0
   15.4243    6.4302    0.0000 C   0  0  0  0  0  0  0  0  0  0  0  0
   15.4243    5.6052    0.0000 O   0  0  0  0  0  0  0  0  0  0  0  0
   16.1388    6.8427    0.0000 C   0  0  0  0  0  0  0  0  0  0  0  0
   16.8533    6.4302    0.0000 C   0  0  0  0  0  0  0  0  0  0  0  0
   17.5677    6.8427    0.0000 C   0  0  0  0  0  0  0  0  0  0  0  0
   18.2822    6.4302    0.0000 C   0  0  0  0  0  0  0  0  0  0  0  0
   18.9967    6.8427    0.0000 C   0  0  0  0  0  0  0  0  0  0  0  0
   18.9967    7.6677    0.0000 O   0  0  0  0  0  0  0  0  0  0  0  0
   19.7111    6.4302    0.0000 O   0  0  0  0  0  0  0  0  0  0  0  0
   20.4256    6.8427    0.0000 C   0  0  0  0  0  0  0  0  0  0  0  0
   21.1401    6.4302    0.0000 C   0  0  0  0  0  0  0  0  0  0  0  0
   21.1401    5.6052    0.0000 C   0  0  0  0  0  0  0  0  0  0  0  0
   21.8546    5.1927    0.0000 C   0  0  0  0  0  0  0  0  0  0  0  0
   21.8546    4.3677    0.0000 C   0  0  0  0  0  0  0  0  0  0  0  0
   21.8546    6.8427    0.0000 C   0  0  0  0  0  0  0  0  0  0  0  0
   22.5690    6.4302    0.0000 C   0  0  0  0  0  0  0  0  0  0  0  0
   23.2835    6.8427    0.0000 C   0  0  0  0  0  0  0  0  0  0  0  0
   23.9980    6.4302    0.0000 C   0  0  0  0  0  0  0  0  0  0  0  0
   24.7124    6.8427    0.0000 C   0  0  0  0  0  0  0  0  0  0  0  0
   13.2809    7.6677    0.0000 C   0  0  0  0  0  0  0  0  0  0  0  0
   12.5664    8.0802    0.0000 C   0  0  0  0  0  0  0  0  0  0  0  0
   12.5664    8.9052    0.0000 C   0  0  0  0  0  0  0  0  0  0  0  0
  1  2  1  0  0  0  0
  2  3  1  0  0  0  0
  3  4  1  0  0  0  0
  4  5  1  0  0  0  0
  5  6  1  0  0  0  0
  6  7  1  0  0  0  0
  7  8  1  0  0  0  0
  8  9  1  0  0  0  0
  9 10  2  0  0  0  0
  9 11  1  0  0  0  0
 11 12  1  0  0  0  0
 12 13  1  0  0  0  0
 13 14  1  0  0  0  0
 14 15  1  0  0  0  0
 15 16  2  0  0  0  0
 15 17  1  0  0  0  0
 17 18  1  0  0  0  0
 18 19  1  0  0  0  0
 19 20  1  0  0  0  0
 20 21  1  0  0  0  0
 21 22  1  0  0  0  0
 19 23  1  0  0  0  0
 23 24  1  0  0  0  0
 24 25  1  0  0  0  0
 25 26  1  0  0  0  0
 26 27  1  0  0  0  0
  6 28  1  0  0  0  0
 28 29  1  0  0  0  0
 29 30  1  0  0  0  0
M  END
> <RowID>
368

> <Original_SMILES>
CCCCCC(COC(=O)CCCCC(=O)OCC(CCC)CCCCC)CCC

> <Canonical_QSARr>
CCCCCC(COC(=O)CCCCC(=O)OCC(CCC)CCCCC)CCC

> <InChI_Code_QSARr>
InChI=1S/C26H50O4/c1-5-9-11-17-23(15-7-3)21-29-25(27)19-13-14-20-26(28)30-22-24(16-8-4)18-12-10-6-2/h23-24H,5-22H2,1-4H3

> <InChI Key_QSARr>
PWMKKPMLPIPGBN-UHFFFAOYSA-N

> <Salt_Solvent>


> <Salt_Solvent_ID>
0

> <Number of connected components>
1

$$$$
Molecule_369
  Mrv2316 01072400032D          

 18 19  0  0  0  0            999 V2000
   -0.1588   -7.4250    0.0000 C   0  0  0  0  0  0  0  0  0  0  0  0
   -0.1588   -6.6000    0.0000 O   0  0  0  0  0  0  0  0  0  0  0  0
    0.5557   -6.1875    0.0000 C   0  0  0  0  0  0  0  0  0  0  0  0
    0.5557   -5.3625    0.0000 C   0  0  0  0  0  0  0  0  0  0  0  0
    1.2702   -4.9500    0.0000 C   0  0  0  0  0  0  0  0  0  0  0  0
    1.2702   -4.1250    0.0000 C   0  0  0  0  0  0  0  0  0  0  0  0
    0.5557   -3.7125    0.0000 C   0  0  0  0  0  0  0  0  0  0  0  0
    0.5557   -2.8875    0.0000 C   0  0  0  0  0  0  0  0  0  0  0  0
    1.2702   -2.4750    0.0000 C   0  0  0  0  0  0  0  0  0  0  0  0
    1.2702   -1.6500    0.0000 C   0  0  0  0  0  0  0  0  0  0  0  0
    0.5557   -1.2375    0.0000 C   0  0  0  0  0  0  0  0  0  0  0  0
    0.5557   -0.4125    0.0000 C   0  0  0  0  0  0  0  0  0  0  0  0
    1.2702    0.0000    0.0000 O   0  0  0  0  0  0  0  0  0  0  0  0
    1.2702    0.8250    0.0000 C   0  0  0  0  0  0  0  0  0  0  0  0
   -0.1588   -1.6500    0.0000 C   0  0  0  0  0  0  0  0  0  0  0  0
   -0.1588   -2.4750    0.0000 C   0  0  0  0  0  0  0  0  0  0  0  0
   -0.1588   -4.1250    0.0000 C   0  0  0  0  0  0  0  0  0  0  0  0
   -0.1588   -4.9500    0.0000 C   0  0  0  0  0  0  0  0  0  0  0  0
  1  2  1  0  0  0  0
  2  3  1  0  0  0  0
  3  4  1  0  0  0  0
  5  4  1  0  0  0  0
  6  5  2  0  0  0  0
  7  6  1  0  0  0  0
  7  8  1  0  0  0  0
  9  8  1  0  0  0  0
 10  9  2  0  0  0  0
 11 10  1  0  0  0  0
 11 12  1  0  0  0  0
 12 13  1  0  0  0  0
 13 14  1  0  0  0  0
 15 11  2  0  0  0  0
 16 15  1  0  0  0  0
  8 16  2  0  0  0  0
 17  7  2  0  0  0  0
 18 17  1  0  0  0  0
  4 18  2  0  0  0  0
M  END
> <RowID>
369

> <Original_SMILES>
COCC1C=CC(=CC=1)C1C=CC(COC)=CC=1

> <Canonical_QSARr>
COCC1C=CC(=CC=1)C1C=CC(COC)=CC=1

> <InChI_Code_QSARr>
InChI=1S/C16H18O2/c1-17-11-13-3-7-15(8-4-13)16-9-5-14(6-10-16)12-18-2/h3-10H,11-12H2,1-2H3

> <InChI Key_QSARr>
MODAACUAXYPNJH-UHFFFAOYSA-N

> <Salt_Solvent>


> <Salt_Solvent_ID>
0

> <Number of connected components>
1

$$$$
Molecule_370
  Mrv2316 01072400032D          

 32 33  0  0  0  0            999 V2000
    1.7159   -1.1725    0.0000 O   0  0  0  0  0  0  0  0  0  0  0  0
    0.9058   -1.0166    0.0000 S   0  0  0  0  0  0  0  0  0  0  0  0
    0.7499   -1.8267    0.0000 O   0  0  0  0  0  0  0  0  0  0  0  0
    1.0617   -0.2064    0.0000 O   0  0  0  0  0  0  0  0  0  0  0  0
    0.0957   -0.8607    0.0000 C   0  0  0  0  0  0  0  0  0  0  0  0
   -0.1744   -0.0811    0.0000 C   0  0  0  0  0  0  0  0  0  0  0  0
   -0.9845    0.0748    0.0000 C   0  0  0  0  0  0  0  0  0  0  0  0
   -1.2546    0.8543    0.0000 C   0  0  0  0  0  0  0  0  0  0  0  0
   -0.7145    1.4780    0.0000 C   0  0  0  0  0  0  0  0  0  0  0  0
    0.0957    1.3221    0.0000 C   0  0  0  0  0  0  0  0  0  0  0  0
    0.3657    0.5425    0.0000 C   0  0  0  0  0  0  0  0  0  0  0  0
   -1.5246   -0.5488    0.0000 C   0  0  0  0  0  0  0  0  0  0  0  0
   -1.2546   -1.3284    0.0000 C   0  0  0  0  0  0  0  0  0  0  0  0
   -1.7947   -1.9520    0.0000 C   0  0  0  0  0  0  0  0  0  0  0  0
   -2.6048   -1.7961    0.0000 C   0  0  0  0  0  0  0  0  0  0  0  0
   -3.1449   -2.4198    0.0000 C   0  0  0  0  0  0  0  0  0  0  0  0
   -3.9550   -2.2639    0.0000 C   0  0  0  0  0  0  0  0  0  0  0  0
   -4.4951   -2.8875    0.0000 C   0  0  0  0  0  0  0  0  0  0  0  0
   -5.3052   -2.7316    0.0000 C   0  0  0  0  0  0  0  0  0  0  0  0
   -5.8453   -3.3552    0.0000 C   0  0  0  0  0  0  0  0  0  0  0  0
   -6.6555   -3.1993    0.0000 C   0  0  0  0  0  0  0  0  0  0  0  0
   -7.1955   -3.8230    0.0000 C   0  0  0  0  0  0  0  0  0  0  0  0
   -0.4444   -1.4843    0.0000 C   0  0  0  0  0  0  0  0  0  0  0  0
   -0.1744   -2.2639    0.0000 C   0  0  0  0  0  0  0  0  0  0  0  0
   -0.7145   -2.8875    0.0000 C   0  0  0  0  0  0  0  0  0  0  0  0
   -0.4444   -3.6671    0.0000 C   0  0  0  0  0  0  0  0  0  0  0  0
    0.3657   -3.8230    0.0000 C   0  0  0  0  0  0  0  0  0  0  0  0
    0.9058   -3.1993    0.0000 C   0  0  0  0  0  0  0  0  0  0  0  0
    1.7159   -3.3552    0.0000 C   0  0  0  0  0  0  0  0  0  0  0  0
    2.2560   -2.7316    0.0000 C   0  0  0  0  0  0  0  0  0  0  0  0
    3.0661   -2.8875    0.0000 C   0  0  0  0  0  0  0  0  0  0  0  0
    3.6062   -2.2639    0.0000 C   0  0  0  0  0  0  0  0  0  0  0  0
  1  2  1  0  0  0  0
  2  3  2  0  0  0  0
  2  4  2  0  0  0  0
  2  5  1  0  0  0  0
  6  5  1  0  0  0  0
  6  7  2  0  0  0  0
  7  8  1  0  0  0  0
  8  9  2  0  0  0  0
  9 10  1  0  0  0  0
 10 11  2  0  0  0  0
 11  6  1  0  0  0  0
 12  7  1  0  0  0  0
 13 12  2  0  0  0  0
 13 14  1  0  0  0  0
 14 15  1  0  0  0  0
 15 16  1  0  0  0  0
 16 17  1  0  0  0  0
 17 18  1  0  0  0  0
 18 19  1  0  0  0  0
 19 20  1  0  0  0  0
 20 21  1  0  0  0  0
 21 22  1  0  0  0  0
 23 13  1  0  0  0  0
  5 23  2  0  0  0  0
 23 24  1  0  0  0  0
 24 25  1  0  0  0  0
 25 26  1  0  0  0  0
 26 27  1  0  0  0  0
 27 28  1  0  0  0  0
 28 29  1  0  0  0  0
 29 30  1  0  0  0  0
 30 31  1  0  0  0  0
 31 32  1  0  0  0  0
M  END
> <RowID>
370

> <Original_SMILES>
[Zn+2].CCCCCCCCCC1=C(C2C=CC=CC=2C=C1CCCCCCCCC)S([O-])(=O)=O.CCCCCCCCCC1=C(C2C=CC=CC=2C=C1CCCCCCCCC)S([O-])(=O)=O

> <Canonical_QSARr>
CCCCCCCCCC1=C(C2C=CC=CC=2C=C1CCCCCCCCC)S(O)(=O)=O

> <InChI_Code_QSARr>
InChI=1S/C28H44O3S/c1-3-5-7-9-11-13-15-19-24-23-25-20-17-18-22-27(25)28(32(29,30)31)26(24)21-16-14-12-10-8-6-4-2/h17-18,20,22-23H,3-16,19,21H2,1-2H3,(H,29,30,31)

> <InChI Key_QSARr>
WDNQRCVBPNOTNV-UHFFFAOYSA-N

> <Salt_Solvent>
[Zn+2]

> <Salt_Solvent_ID>
300

> <Number of connected components>
3

$$$$
Molecule_371
  Mrv2316 01072400032D          

 31 33  0  0  0  0            999 V2000
    6.9240   -5.1372    0.0000 O   0  0  0  0  0  0  0  0  0  0  0  0
    6.3109   -4.5851    0.0000 S   0  0  0  0  0  0  0  0  0  0  0  0
    6.8629   -3.9720    0.0000 O   0  0  0  0  0  0  0  0  0  0  0  0
    5.7588   -5.1982    0.0000 O   0  0  0  0  0  0  0  0  0  0  0  0
    5.6978   -4.0331    0.0000 C   0  0  0  0  0  0  0  0  0  0  0  0
    5.8693   -3.2261    0.0000 C   0  0  0  0  0  0  0  0  0  0  0  0
    5.2562   -2.6741    0.0000 C   0  0  0  0  0  0  0  0  0  0  0  0
    4.4716   -2.9290    0.0000 C   0  0  0  0  0  0  0  0  0  0  0  0
    4.3001   -3.7360    0.0000 C   0  0  0  0  0  0  0  0  0  0  0  0
    3.5155   -3.9909    0.0000 N   0  0  0  0  0  0  0  0  0  0  0  0
    2.8480   -3.5060    0.0000 C   0  0  0  0  0  0  0  0  0  0  0  0
    2.8480   -2.6810    0.0000 O   0  0  0  0  0  0  0  0  0  0  0  0
    2.1806   -3.9909    0.0000 C   0  0  0  0  0  0  0  0  0  0  0  0
    1.3960   -3.7360    0.0000 N   0  0  0  0  0  0  0  0  0  0  0  0
    1.2244   -2.9290    0.0000 N   0  0  0  0  0  0  0  0  0  0  0  0
    0.4398   -2.6741    0.0000 C   0  0  0  0  0  0  0  0  0  0  0  0
    0.2683   -1.8671    0.0000 C   0  0  0  0  0  0  0  0  0  0  0  0
    0.8814   -1.3151    0.0000 S   0  0  0  0  0  0  0  0  0  0  0  0
    1.4945   -0.7631    0.0000 O   0  0  0  0  0  0  0  0  0  0  0  0
    0.3293   -0.7020    0.0000 O   0  0  0  0  0  0  0  0  0  0  0  0
    1.4334   -1.9282    0.0000 O   0  0  0  0  0  0  0  0  0  0  0  0
   -0.5163   -1.6122    0.0000 C   0  0  0  0  0  0  0  0  0  0  0  0
   -1.1294   -2.1642    0.0000 C   0  0  0  0  0  0  0  0  0  0  0  0
   -1.9141   -1.9093    0.0000 C   0  0  0  0  0  0  0  0  0  0  0  0
   -0.9579   -2.9712    0.0000 C   0  0  0  0  0  0  0  0  0  0  0  0
   -1.5710   -3.5232    0.0000 Cl  0  0  0  0  0  0  0  0  0  0  0  0
   -0.1733   -3.2261    0.0000 C   0  0  0  0  0  0  0  0  0  0  0  0
    2.4355   -4.7756    0.0000 C   0  0  0  0  0  0  0  0  0  0  0  0
    1.9506   -5.4430    0.0000 C   0  0  0  0  0  0  0  0  0  0  0  0
    3.2605   -4.7756    0.0000 N   0  0  0  0  0  0  0  0  0  0  0  0
    4.9132   -4.2880    0.0000 C   0  0  0  0  0  0  0  0  0  0  0  0
  1  2  1  0  0  0  0
  2  3  2  0  0  0  0
  2  4  2  0  0  0  0
  2  5  1  0  0  0  0
  6  5  1  0  0  0  0
  7  6  2  0  0  0  0
  8  7  1  0  0  0  0
  9  8  2  0  0  0  0
  9 10  1  0  0  0  0
 11 10  1  0  0  0  0
 11 12  2  0  0  0  0
 13 11  1  0  0  0  0
 14 13  1  4  0  0  0
 14 15  2  0  0  0  0
 15 16  1  0  0  0  0
 17 16  2  0  0  0  0
 17 18  1  0  0  0  0
 18 19  1  0  0  0  0
 18 20  2  0  0  0  0
 18 21  2  0  0  0  0
 22 17  1  0  0  0  0
 23 22  2  0  0  0  0
 23 24  1  0  0  0  0
 25 23  1  0  0  0  0
 25 26  1  0  0  0  0
 27 25  2  0  0  0  0
 16 27  1  0  0  0  0
 28 13  1  0  0  0  0
 28 29  1  0  0  0  0
 30 28  2  0  0  0  0
 10 30  1  0  0  0  0
 31  9  1  0  0  0  0
  5 31  2  0  0  0  0
M  END
> <RowID>
371

> <Original_SMILES>
[Ca+2].CC1=NN(C2C=C(C=CC=2)S([O-])(=O)=O)C(=O)C1N=NC1C=C(Cl)C(C)=CC=1S([O-])(=O)=O

> <Canonical_QSARr>
CC1=NN(C2C=C(C=CC=2)S(O)(=O)=O)C(=O)C1N=NC1C=C(Cl)C(C)=CC=1S(O)(=O)=O

> <InChI_Code_QSARr>
InChI=1S/C17H15ClN4O7S2/c1-9-6-15(31(27,28)29)14(8-13(9)18)19-20-16-10(2)21-22(17(16)23)11-4-3-5-12(7-11)30(24,25)26/h3-8,16H,1-2H3,(H,24,25,26)(H,27,28,29)

> <InChI Key_QSARr>
FLNFGIKCCOPBMZ-UHFFFAOYSA-N

> <Salt_Solvent>
[Ca+2]

> <Salt_Solvent_ID>
200

> <Number of connected components>
2

$$$$
Molecule_372
  Mrv2316 01072400032D          

 25 24  0  0  0  0            999 V2000
   -3.4618   -6.6000    0.0000 C   0  0  0  0  0  0  0  0  0  0  0  0
   -2.7474   -6.1875    0.0000 Si  0  0  0  0  0  0  0  0  0  0  0  0
   -2.3349   -6.9020    0.0000 C   0  0  0  0  0  0  0  0  0  0  0  0
   -3.1599   -5.4730    0.0000 C   0  0  0  0  0  0  0  0  0  0  0  0
   -2.0329   -5.7750    0.0000 O   0  0  0  0  0  0  0  0  0  0  0  0
   -2.0329   -4.9500    0.0000 Si  0  0  0  0  0  0  0  0  0  0  0  0
   -1.2079   -4.9500    0.0000 C   0  0  0  0  0  0  0  0  0  0  0  0
   -2.8579   -4.9500    0.0000 C   0  0  0  0  0  0  0  0  0  0  0  0
   -2.0329   -4.1250    0.0000 O   0  0  0  0  0  0  0  0  0  0  0  0
   -1.3184   -3.7125    0.0000 Si  0  0  0  0  0  0  0  0  0  0  0  0
   -0.9059   -4.4270    0.0000 C   0  0  0  0  0  0  0  0  0  0  0  0
   -1.7309   -2.9980    0.0000 C   0  0  0  0  0  0  0  0  0  0  0  0
   -0.6039   -3.3000    0.0000 O   0  0  0  0  0  0  0  0  0  0  0  0
   -0.6039   -2.4750    0.0000 Si  0  0  0  0  0  0  0  0  0  0  0  0
    0.2211   -2.4750    0.0000 C   0  0  0  0  0  0  0  0  0  0  0  0
   -1.4289   -2.4750    0.0000 C   0  0  0  0  0  0  0  0  0  0  0  0
   -0.6039   -1.6500    0.0000 O   0  0  0  0  0  0  0  0  0  0  0  0
    0.1105   -1.2375    0.0000 Si  0  0  0  0  0  0  0  0  0  0  0  0
    0.5230   -1.9520    0.0000 C   0  0  0  0  0  0  0  0  0  0  0  0
   -0.3020   -0.5230    0.0000 C   0  0  0  0  0  0  0  0  0  0  0  0
    0.8250   -0.8250    0.0000 O   0  0  0  0  0  0  0  0  0  0  0  0
    0.8250   -0.0000    0.0000 Si  0  0  0  0  0  0  0  0  0  0  0  0
    0.8250    0.8250    0.0000 C   0  0  0  0  0  0  0  0  0  0  0  0
    1.6500   -0.0000    0.0000 C   0  0  0  0  0  0  0  0  0  0  0  0
   -0.0000   -0.0000    0.0000 C   0  0  0  0  0  0  0  0  0  0  0  0
  1  2  1  0  0  0  0
  2  3  1  0  0  0  0
  2  4  1  0  0  0  0
  2  5  1  0  0  0  0
  5  6  1  0  0  0  0
  6  7  1  0  0  0  0
  6  8  1  0  0  0  0
  6  9  1  0  0  0  0
  9 10  1  0  0  0  0
 10 11  1  0  0  0  0
 10 12  1  0  0  0  0
 10 13  1  0  0  0  0
 13 14  1  0  0  0  0
 14 15  1  0  0  0  0
 14 16  1  0  0  0  0
 14 17  1  0  0  0  0
 17 18  1  0  0  0  0
 18 19  1  0  0  0  0
 18 20  1  0  0  0  0
 18 21  1  0  0  0  0
 21 22  1  0  0  0  0
 22 23  1  0  0  0  0
 22 24  1  0  0  0  0
 22 25  1  0  0  0  0
M  END
> <RowID>
372

> <Original_SMILES>
C[Si](C)(C)O[Si](C)(C)O[Si](C)(C)O[Si](C)(C)O[Si](C)(C)O[Si](C)(C)C

> <Canonical_QSARr>
C[Si](C)(C)O[Si](C)(C)O[Si](C)(C)O[Si](C)(C)O[Si](C)(C)O[Si](C)(C)C

> <InChI_Code_QSARr>
InChI=1S/C14H42O5Si6/c1-20(2,3)15-22(7,8)17-24(11,12)19-25(13,14)18-23(9,10)16-21(4,5)6/h1-14H3

> <InChI Key_QSARr>
ADANNTOYRVPQLJ-UHFFFAOYSA-N

> <Salt_Solvent>


> <Salt_Solvent_ID>
0

> <Number of connected components>
1

$$$$
Molecule_373
  Mrv2316 01072400032D          

  9  9  0  0  0  0            999 V2000
    2.3022   -0.6875    0.0000 C   0  0  0  0  0  0  0  0  0  0  0  0
    1.5877   -0.2750    0.0000 C   0  0  0  0  0  0  0  0  0  0  0  0
    1.5877    0.5500    0.0000 C   0  0  0  0  0  0  0  0  0  0  0  0
    0.8732    0.9625    0.0000 C   0  0  0  0  0  0  0  0  0  0  0  0
    0.8732    1.7875    0.0000 C   0  0  0  0  0  0  0  0  0  0  0  0
    0.1588    0.5500    0.0000 C   0  0  0  0  0  0  0  0  0  0  0  0
   -0.5557    0.9625    0.0000 N   0  0  0  0  0  0  0  0  0  0  0  0
    0.1588   -0.2750    0.0000 C   0  0  0  0  0  0  0  0  0  0  0  0
    0.8732   -0.6875    0.0000 C   0  0  0  0  0  0  0  0  0  0  0  0
  1  2  1  0  0  0  0
  3  2  2  0  0  0  0
  4  3  1  0  0  0  0
  4  5  1  0  0  0  0
  6  4  2  0  0  0  0
  6  7  1  0  0  0  0
  8  6  1  0  0  0  0
  9  8  2  0  0  0  0
  2  9  1  0  0  0  0
M  END
> <RowID>
373

> <Original_SMILES>
CC1=CC(C)=C(N)C=C1

> <Canonical_QSARr>
CC1=CC(C)=C(N)C=C1

> <InChI_Code_QSARr>
InChI=1S/C8H11N/c1-6-3-4-8(9)7(2)5-6/h3-5H,9H2,1-2H3

> <InChI Key_QSARr>
CZZZABOKJQXEBO-UHFFFAOYSA-N

> <Salt_Solvent>


> <Salt_Solvent_ID>
0

> <Number of connected components>
1

$$$$
Molecule_374
  Mrv2316 01072400032D          

 36 39  0  0  0  0            999 V2000
   -3.0166    3.5750    0.0000 C   0  0  0  0  0  0  0  0  0  0  0  0
   -2.3022    3.1625    0.0000 C   0  0  0  0  0  0  0  0  0  0  0  0
   -1.5877    3.5750    0.0000 O   0  0  0  0  0  0  0  0  0  0  0  0
   -2.3022    2.3375    0.0000 N   0  0  0  0  0  0  0  0  0  0  0  0
   -1.5877    1.9250    0.0000 C   0  0  0  0  0  0  0  0  0  0  0  0
   -1.5877    1.1000    0.0000 C   0  0  0  0  0  0  0  0  0  0  0  0
   -0.8732    0.6875    0.0000 C   0  0  0  0  0  0  0  0  0  0  0  0
   -0.1588    1.1000    0.0000 C   0  0  0  0  0  0  0  0  0  0  0  0
    0.5557    0.6875    0.0000 N   0  0  0  0  0  0  0  0  0  0  0  0
    0.5557   -0.1375    0.0000 C   0  0  0  0  0  0  0  0  0  0  0  0
   -0.1588   -0.5500    0.0000 O   0  0  0  0  0  0  0  0  0  0  0  0
    1.2702   -0.5500    0.0000 C   0  0  0  0  0  0  0  0  0  0  0  0
    1.9846   -0.1375    0.0000 C   0  0  0  0  0  0  0  0  0  0  0  0
    2.6991   -0.5500    0.0000 C   0  0  0  0  0  0  0  0  0  0  0  0
    3.4136   -0.1375    0.0000 C   0  0  0  0  0  0  0  0  0  0  0  0
    4.1281   -0.5500    0.0000 C   0  0  0  0  0  0  0  0  0  0  0  0
    4.1281   -1.3750    0.0000 C   0  0  0  0  0  0  0  0  0  0  0  0
    3.4136   -1.7875    0.0000 C   0  0  0  0  0  0  0  0  0  0  0  0
    2.6991   -1.3750    0.0000 C   0  0  0  0  0  0  0  0  0  0  0  0
    1.9846   -1.7875    0.0000 C   0  0  0  0  0  0  0  0  0  0  0  0
    1.9846   -2.6125    0.0000 N   0  0  0  0  0  0  0  0  0  0  0  0
    1.2702   -3.0250    0.0000 N   0  0  0  0  0  0  0  0  0  0  0  0
    1.2702   -3.8500    0.0000 C   0  0  0  0  0  0  0  0  0  0  0  0
    0.5557   -4.2625    0.0000 C   0  0  0  0  0  0  0  0  0  0  0  0
    0.5557   -5.0875    0.0000 C   0  0  0  0  0  0  0  0  0  0  0  0
   -0.1588   -5.5000    0.0000 C   0  0  0  0  0  0  0  0  0  0  0  0
   -0.1588   -6.3250    0.0000 N   0  0  0  0  0  0  0  0  0  0  0  0
   -0.8732   -5.0875    0.0000 O   0  0  0  0  0  0  0  0  0  0  0  0
    1.2702   -5.5000    0.0000 C   0  0  0  0  0  0  0  0  0  0  0  0
    1.9846   -5.0875    0.0000 C   0  0  0  0  0  0  0  0  0  0  0  0
    1.9846   -4.2625    0.0000 C   0  0  0  0  0  0  0  0  0  0  0  0
    2.6991   -3.8500    0.0000 Cl  0  0  0  0  0  0  0  0  0  0  0  0
    1.2702   -1.3750    0.0000 C   0  0  0  0  0  0  0  0  0  0  0  0
    0.5557   -1.7875    0.0000 O   0  0  0  0  0  0  0  0  0  0  0  0
   -0.1588    1.9250    0.0000 C   0  0  0  0  0  0  0  0  0  0  0  0
   -0.8732    2.3375    0.0000 C   0  0  0  0  0  0  0  0  0  0  0  0
  1  2  1  0  0  0  0
  2  3  2  0  0  0  0
  2  4  1  0  0  0  0
  4  5  1  0  0  0  0
  6  5  1  0  0  0  0
  7  6  2  0  0  0  0
  8  7  1  0  0  0  0
  8  9  1  0  0  0  0
  9 10  1  0  0  0  0
 10 11  2  0  0  0  0
 10 12  1  0  0  0  0
 13 12  2  0  0  0  0
 14 13  1  0  0  0  0
 14 15  2  0  0  0  0
 15 16  1  0  0  0  0
 16 17  2  0  0  0  0
 17 18  1  0  0  0  0
 18 19  2  0  0  0  0
 19 14  1  0  0  0  0
 20 19  1  0  0  0  0
 21 20  1  4  0  0  0
 21 22  2  0  0  0  0
 22 23  1  0  0  0  0
 24 23  2  0  0  0  0
 25 24  1  0  0  0  0
 25 26  1  0  0  0  0
 26 27  1  0  0  0  0
 26 28  2  0  0  0  0
 29 25  2  0  0  0  0
 30 29  1  0  0  0  0
 31 30  2  0  0  0  0
 23 31  1  0  0  0  0
 31 32  1  0  0  0  0
 33 20  2  0  0  0  0
 12 33  1  0  0  0  0
 33 34  1  0  0  0  0
 35  8  2  0  0  0  0
 36 35  1  0  0  0  0
  5 36  2  0  0  0  0
M  END
> <RowID>
374

> <Original_SMILES>
CC(=O)NC1C=CC(=CC=1)NC(=O)C1=CC2=CC=CC=C2C(N=NC2=CC(=CC=C2Cl)C(N)=O)=C1O

> <Canonical_QSARr>
CC(=O)NC1C=CC(=CC=1)NC(=O)C1=CC2=CC=CC=C2C(N=NC2=CC(=CC=C2Cl)C(N)=O)=C1O

> <InChI_Code_QSARr>
InChI=1S/C26H20ClN5O4/c1-14(33)29-17-7-9-18(10-8-17)30-26(36)20-12-15-4-2-3-5-19(15)23(24(20)34)32-31-22-13-16(25(28)35)6-11-21(22)27/h2-13,34H,1H3,(H2,28,35)(H,29,33)(H,30,36)

> <InChI Key_QSARr>
UHZVOVCIPHZPEI-UHFFFAOYSA-N

> <Salt_Solvent>


> <Salt_Solvent_ID>
0

> <Number of connected components>
1

$$$$
Molecule_375
  Mrv2316 01072400032D          

 16 15  0  0  0  0            999 V2000
    6.7105    4.6993    0.0000 O   0  0  0  0  0  0  0  0  0  0  0  0
    7.4250    4.2868    0.0000 C   0  0  0  0  0  0  0  0  0  0  0  0
    7.4250    3.4618    0.0000 O   0  0  0  0  0  0  0  0  0  0  0  0
    8.1395    4.6993    0.0000 C   0  0  0  0  0  0  0  0  0  0  0  0
    8.8539    4.2868    0.0000 C   0  0  0  0  0  0  0  0  0  0  0  0
    9.5684    4.6993    0.0000 C   0  0  0  0  0  0  0  0  0  0  0  0
   10.2829    4.2868    0.0000 C   0  0  0  0  0  0  0  0  0  0  0  0
   10.9974    4.6993    0.0000 C   0  0  0  0  0  0  0  0  0  0  0  0
   11.7118    4.2868    0.0000 C   0  0  0  0  0  0  0  0  0  0  0  0
   12.4263    4.6993    0.0000 C   0  0  0  0  0  0  0  0  0  0  0  0
   13.1408    4.2868    0.0000 C   0  0  0  0  0  0  0  0  0  0  0  0
   13.8552    4.6993    0.0000 C   0  0  0  0  0  0  0  0  0  0  0  0
   14.5697    4.2868    0.0000 C   0  0  0  0  0  0  0  0  0  0  0  0
   15.2842    4.6993    0.0000 C   0  0  0  0  0  0  0  0  0  0  0  0
   15.9987    4.2868    0.0000 C   0  0  0  0  0  0  0  0  0  0  0  0
   16.7131    4.6993    0.0000 C   0  0  0  0  0  0  0  0  0  0  0  0
  1  2  1  0  0  0  0
  2  3  2  0  0  0  0
  2  4  1  0  0  0  0
  4  5  1  0  0  0  0
  5  6  1  0  0  0  0
  6  7  1  0  0  0  0
  7  8  1  0  0  0  0
  8  9  1  0  0  0  0
  9 10  1  0  0  0  0
 10 11  1  0  0  0  0
 11 12  1  0  0  0  0
 12 13  1  0  0  0  0
 13 14  1  0  0  0  0
 14 15  1  0  0  0  0
 15 16  1  0  0  0  0
M  END
> <RowID>
375

> <Original_SMILES>
[Zn+2].CCCCCCCCCCCCCC([O-])=O.CCCCCCCCCCCCCC([O-])=O

> <Canonical_QSARr>
CCCCCCCCCCCCCC(O)=O

> <InChI_Code_QSARr>
InChI=1S/C14H28O2/c1-2-3-4-5-6-7-8-9-10-11-12-13-14(15)16/h2-13H2,1H3,(H,15,16)

> <InChI Key_QSARr>
TUNFSRHWOTWDNC-UHFFFAOYSA-N

> <Salt_Solvent>
[Zn+2]

> <Salt_Solvent_ID>
300

> <Number of connected components>
3

$$$$
Molecule_376
  Mrv2316 01072400032D          

 22 21  0  0  0  0            999 V2000
    1.9030   -7.9792    0.0000 C   0  0  0  0  0  0  0  0  0  0  0  0
    2.4750   -8.5737    0.0000 C   0  0  0  0  0  0  0  0  0  0  0  0
    3.2759   -8.3755    0.0000 C   0  0  0  0  0  0  0  0  0  0  0  0
    3.8479   -8.9700    0.0000 C   0  0  0  0  0  0  0  0  0  0  0  0
    4.6487   -8.7718    0.0000 C   0  0  0  0  0  0  0  0  0  0  0  0
    5.2208   -9.3663    0.0000 C   0  0  0  0  0  0  0  0  0  0  0  0
    6.0216   -9.1681    0.0000 C   0  0  0  0  0  0  0  0  0  0  0  0
    6.5937   -9.7626    0.0000 C   0  0  0  0  0  0  0  0  0  0  0  0
    7.3945   -9.5645    0.0000 C   0  0  0  0  0  0  0  0  0  0  0  0
    7.9665  -10.1589    0.0000 C   0  0  0  0  0  0  0  0  0  0  0  0
    8.7674   -9.9608    0.0000 C   0  0  0  0  0  0  0  0  0  0  0  0
    9.3394  -10.5552    0.0000 C   0  0  0  0  0  0  0  0  0  0  0  0
    9.1106  -11.3479    0.0000 O   0  0  0  0  0  0  0  0  0  0  0  0
   10.1403  -10.3571    0.0000 N   0  0  0  0  0  0  0  0  0  0  0  0
   10.7123  -10.9516    0.0000 C   0  0  0  0  0  0  0  0  0  0  0  0
   11.5132  -10.7534    0.0000 C   0  0  0  0  0  0  0  0  0  0  0  0
   12.0852  -11.3479    0.0000 C   0  0  0  0  0  0  0  0  0  0  0  0
   12.8860  -11.1497    0.0000 C   0  0  0  0  0  0  0  0  0  0  0  0
   10.3691   -9.5645    0.0000 C   0  0  0  0  0  0  0  0  0  0  0  0
   11.1699   -9.3663    0.0000 C   0  0  0  0  0  0  0  0  0  0  0  0
   11.3987   -8.5737    0.0000 C   0  0  0  0  0  0  0  0  0  0  0  0
   12.1996   -8.3755    0.0000 C   0  0  0  0  0  0  0  0  0  0  0  0
  1  2  1  0  0  0  0
  2  3  1  0  0  0  0
  3  4  1  0  0  0  0
  4  5  1  0  0  0  0
  5  6  1  0  0  0  0
  6  7  1  0  0  0  0
  7  8  1  0  0  0  0
  8  9  1  0  0  0  0
  9 10  1  0  0  0  0
 10 11  1  0  0  0  0
 11 12  1  0  0  0  0
 12 13  2  0  0  0  0
 12 14  1  0  0  0  0
 14 15  1  0  0  0  0
 15 16  1  0  0  0  0
 16 17  1  0  0  0  0
 17 18  1  0  0  0  0
 14 19  1  0  0  0  0
 19 20  1  0  0  0  0
 20 21  1  0  0  0  0
 21 22  1  0  0  0  0
M  END
> <RowID>
376

> <Original_SMILES>
CCCCCCCCCCCC(=O)N(CCCC)CCCC

> <Canonical_QSARr>
CCCCCCCCCCCC(=O)N(CCCC)CCCC

> <InChI_Code_QSARr>
InChI=1S/C20H41NO/c1-4-7-10-11-12-13-14-15-16-17-20(22)21(18-8-5-2)19-9-6-3/h4-19H2,1-3H3

> <InChI Key_QSARr>
MFARGUPPFBTESX-UHFFFAOYSA-N

> <Salt_Solvent>


> <Salt_Solvent_ID>
0

> <Number of connected components>
1

$$$$
Molecule_378
  Mrv2316 01072400032D          

  6  5  0  0  0  0            999 V2000
    1.6500   -1.4289    0.0000 C   0  0  0  0  0  0  0  0  0  0  0  0
    1.2375   -0.7145    0.0000 Si  0  0  0  0  0  0  0  0  0  0  0  0
    1.9520   -0.3020    0.0000 C   0  0  0  0  0  0  0  0  0  0  0  0
    0.5230   -1.1270    0.0000 C   0  0  0  0  0  0  0  0  0  0  0  0
    0.8250   -0.0000    0.0000 C   0  0  0  0  0  0  0  0  0  0  0  0
    0.0000   -0.0000    0.0000 Cl  0  0  0  0  0  0  0  0  0  0  0  0
  1  2  1  0  0  0  0
  2  3  1  0  0  0  0
  2  4  1  0  0  0  0
  2  5  1  0  0  0  0
  5  6  1  0  0  0  0
M  END
> <RowID>
378

> <Original_SMILES>
C[Si](C)(C)CCl

> <Canonical_QSARr>
C[Si](C)(C)CCl

> <InChI_Code_QSARr>
InChI=1S/C4H11ClSi/c1-6(2,3)4-5/h4H2,1-3H3

> <InChI Key_QSARr>
OOCUOKHIVGWCTJ-UHFFFAOYSA-N

> <Salt_Solvent>


> <Salt_Solvent_ID>
0

> <Number of connected components>
1

$$$$
Molecule_379
  Mrv2316 01072400032D          

 28 30  0  0  0  0            999 V2000
   -1.8627   -0.7513    0.0000 C   0  0  0  0  0  0  0  0  0  0  0  0
   -1.1483   -1.1638    0.0000 O   0  0  0  0  0  0  0  0  0  0  0  0
   -0.4338   -0.7513    0.0000 C   0  0  0  0  0  0  0  0  0  0  0  0
    0.2807   -1.1638    0.0000 C   0  0  0  0  0  0  0  0  0  0  0  0
    0.9951   -0.7513    0.0000 C   0  0  0  0  0  0  0  0  0  0  0  0
    0.9951    0.0737    0.0000 C   0  0  0  0  0  0  0  0  0  0  0  0
    1.7096    0.4862    0.0000 C   0  0  0  0  0  0  0  0  0  0  0  0
    1.1793    1.1181    0.0000 C   0  0  0  0  0  0  0  0  0  0  0  0
    2.2399    1.1181    0.0000 C   0  0  0  0  0  0  0  0  0  0  0  0
    2.4241    0.0737    0.0000 C   0  0  0  0  0  0  0  0  0  0  0  0
    3.1386    0.4862    0.0000 O   0  0  0  0  0  0  0  0  0  0  0  0
    2.4241   -0.7513    0.0000 N   0  0  0  0  0  0  0  0  0  0  0  0
    3.1386   -1.1638    0.0000 C   0  0  0  0  0  0  0  0  0  0  0  0
    3.1386   -1.9888    0.0000 C   0  0  0  0  0  0  0  0  0  0  0  0
    3.8530   -2.4013    0.0000 C   0  0  0  0  0  0  0  0  0  0  0  0
    3.8530   -3.2263    0.0000 C   0  0  0  0  0  0  0  0  0  0  0  0
    4.5675   -3.6388    0.0000 C   0  0  0  0  0  0  0  0  0  0  0  0
    5.2820   -3.2263    0.0000 C   0  0  0  0  0  0  0  0  0  0  0  0
    5.9964   -3.6388    0.0000 S   0  0  0  0  0  0  0  0  0  0  0  0
    6.7109   -4.0513    0.0000 N   0  0  0  0  0  0  0  0  0  0  0  0
    5.5839   -4.3533    0.0000 O   0  0  0  0  0  0  0  0  0  0  0  0
    6.4089   -2.9244    0.0000 O   0  0  0  0  0  0  0  0  0  0  0  0
    5.2820   -2.4013    0.0000 C   0  0  0  0  0  0  0  0  0  0  0  0
    4.5675   -1.9888    0.0000 C   0  0  0  0  0  0  0  0  0  0  0  0
    1.7096   -1.1638    0.0000 C   0  0  0  0  0  0  0  0  0  0  0  0
    1.7096   -1.9888    0.0000 O   0  0  0  0  0  0  0  0  0  0  0  0
    0.2807    0.4862    0.0000 C   0  0  0  0  0  0  0  0  0  0  0  0
   -0.4338    0.0737    0.0000 C   0  0  0  0  0  0  0  0  0  0  0  0
  1  2  1  0  0  0  0
  2  3  1  0  0  0  0
  4  3  2  0  0  0  0
  5  4  1  0  0  0  0
  5  6  2  0  0  0  0
  6  7  1  0  0  0  0
  7  8  1  0  0  0  0
  7  9  1  0  0  0  0
  7 10  1  0  0  0  0
 10 11  2  0  0  0  0
 10 12  1  0  0  0  0
 12 13  1  0  0  0  0
 13 14  1  0  0  0  0
 14 15  1  0  0  0  0
 16 15  1  0  0  0  0
 17 16  2  0  0  0  0
 18 17  1  0  0  0  0
 18 19  1  0  0  0  0
 19 20  1  0  0  0  0
 19 21  2  0  0  0  0
 19 22  2  0  0  0  0
 23 18  2  0  0  0  0
 24 23  1  0  0  0  0
 15 24  2  0  0  0  0
 12 25  1  0  0  0  0
 25  5  1  0  0  0  0
 25 26  2  0  0  0  0
 27  6  1  0  0  0  0
 28 27  2  0  0  0  0
  3 28  1  0  0  0  0
M  END
> <RowID>
379

> <Original_SMILES>
COC1=CC2=C(C=C1)C(C)(C)C(=O)N(CCC1C=CC(=CC=1)S(N)(=O)=O)C2=O

> <Canonical_QSARr>
COC1=CC2=C(C=C1)C(C)(C)C(=O)N(CCC1C=CC(=CC=1)S(N)(=O)=O)C2=O

> <InChI_Code_QSARr>
InChI=1S/C20H22N2O5S/c1-20(2)17-9-6-14(27-3)12-16(17)18(23)22(19(20)24)11-10-13-4-7-15(8-5-13)28(21,25)26/h4-9,12H,10-11H2,1-3H3,(H2,21,25,26)

> <InChI Key_QSARr>
YJHGEYXLMLMFCF-UHFFFAOYSA-N

> <Salt_Solvent>


> <Salt_Solvent_ID>
0

> <Number of connected components>
1

$$$$
Molecule_380
  Mrv2316 01072400032D          

 20 21  0  0  0  0            999 V2000
    4.6441   -7.2188    0.0000 O   0  0  0  0  0  0  0  0  0  0  0  0
    3.9296   -6.8063    0.0000 C   0  0  0  0  0  0  0  0  0  0  0  0
    3.9296   -5.9813    0.0000 N   0  0  0  0  0  0  0  0  0  0  0  0
    3.2151   -5.5688    0.0000 C   0  0  0  0  0  0  0  0  0  0  0  0
    3.2151   -4.7438    0.0000 O   0  0  0  0  0  0  0  0  0  0  0  0
    2.5006   -5.9813    0.0000 C   0  0  0  0  0  0  0  0  0  0  0  0
    1.7862   -5.5688    0.0000 N   0  0  0  0  0  0  0  0  0  0  0  0
    1.7862   -4.7438    0.0000 N   0  0  0  0  0  0  0  0  0  0  0  0
    1.0717   -4.3313    0.0000 C   0  0  0  0  0  0  0  0  0  0  0  0
    1.0717   -3.5062    0.0000 C   0  0  0  0  0  0  0  0  0  0  0  0
    1.7862   -3.0938    0.0000 O   0  0  0  0  0  0  0  0  0  0  0  0
    0.3572   -3.0938    0.0000 N   0  0  0  0  0  0  0  0  0  0  0  0
   -0.3572   -3.5063    0.0000 C   0  0  0  0  0  0  0  0  0  0  0  0
   -1.0717   -3.0938    0.0000 O   0  0  0  0  0  0  0  0  0  0  0  0
   -0.3572   -4.3313    0.0000 N   0  0  0  0  0  0  0  0  0  0  0  0
    0.3572   -4.7438    0.0000 C   0  0  0  0  0  0  0  0  0  0  0  0
    0.3572   -5.5688    0.0000 O   0  0  0  0  0  0  0  0  0  0  0  0
    2.5006   -6.8063    0.0000 C   0  0  0  0  0  0  0  0  0  0  0  0
    1.7862   -7.2188    0.0000 O   0  0  0  0  0  0  0  0  0  0  0  0
    3.2151   -7.2188    0.0000 N   0  0  0  0  0  0  0  0  0  0  0  0
  1  2  2  0  0  0  0
  3  2  1  0  0  0  0
  4  3  1  0  0  0  0
  4  5  2  0  0  0  0
  6  4  1  0  0  0  0
  7  6  1  4  0  0  0
  7  8  2  0  0  0  0
  8  9  1  0  0  0  0
 10  9  1  0  0  0  0
 10 11  2  0  0  0  0
 12 10  1  0  0  0  0
 13 12  1  0  0  0  0
 13 14  2  0  0  0  0
 15 13  1  0  0  0  0
 16 15  1  0  0  0  0
  9 16  1  0  0  0  0
 16 17  2  0  0  0  0
 18  6  1  0  0  0  0
 18 19  2  0  0  0  0
 20 18  1  0  0  0  0
  2 20  1  0  0  0  0
M  END
> <RowID>
380

> <Original_SMILES>
O=C1NC(=O)C(N=NC2C(=O)NC(=O)NC2=O)C(=O)N1

> <Canonical_QSARr>
O=C1NC(=O)C(N=NC2C(=O)NC(=O)NC2=O)C(=O)N1

> <InChI_Code_QSARr>
InChI=1S/C8H6N6O6/c15-3-1(4(16)10-7(19)9-3)13-14-2-5(17)11-8(20)12-6(2)18/h1-2H,(H2,9,10,15,16,19)(H2,11,12,17,18,20)

> <InChI Key_QSARr>
LCGWXMONLSJYQR-UHFFFAOYSA-N

> <Salt_Solvent>


> <Salt_Solvent_ID>
0

> <Number of connected components>
1

$$$$
Molecule_381
  Mrv2316 01072400032D          

 49 54  0  0  0  0            999 V2000
   -3.7574    2.8023    0.0000 C   0  0  0  0  0  0  0  0  0  0  0  0
   -2.9324    2.8023    0.0000 C   0  0  0  0  0  0  0  0  0  0  0  0
   -2.9324    3.6273    0.0000 C   0  0  0  0  0  0  0  0  0  0  0  0
   -2.9324    1.9773    0.0000 C   0  0  0  0  0  0  0  0  0  0  0  0
   -2.1074    2.8023    0.0000 C   0  0  0  0  0  0  0  0  0  0  0  0
   -1.6949    2.0879    0.0000 C   0  0  0  0  0  0  0  0  0  0  0  0
   -2.4094    1.6754    0.0000 C   0  0  0  0  0  0  0  0  0  0  0  0
   -0.9805    2.5004    0.0000 C   0  0  0  0  0  0  0  0  0  0  0  0
   -1.2824    1.3734    0.0000 C   0  0  0  0  0  0  0  0  0  0  0  0
   -1.6949    0.6589    0.0000 C   0  0  0  0  0  0  0  0  0  0  0  0
   -1.2824   -0.0556    0.0000 C   0  0  0  0  0  0  0  0  0  0  0  0
   -1.6949   -0.7700    0.0000 C   0  0  0  0  0  0  0  0  0  0  0  0
   -2.5199   -0.7700    0.0000 C   0  0  0  0  0  0  0  0  0  0  0  0
   -2.9324   -0.0556    0.0000 C   0  0  0  0  0  0  0  0  0  0  0  0
   -3.7574   -0.0556    0.0000 C   0  0  0  0  0  0  0  0  0  0  0  0
   -4.1699    0.6589    0.0000 C   0  0  0  0  0  0  0  0  0  0  0  0
   -3.4555    1.0714    0.0000 C   0  0  0  0  0  0  0  0  0  0  0  0
   -4.5824    1.3734    0.0000 C   0  0  0  0  0  0  0  0  0  0  0  0
   -4.8844    0.2464    0.0000 C   0  0  0  0  0  0  0  0  0  0  0  0
   -5.5989    0.6589    0.0000 C   0  0  0  0  0  0  0  0  0  0  0  0
   -5.1864    1.3734    0.0000 C   0  0  0  0  0  0  0  0  0  0  0  0
   -6.0114   -0.0556    0.0000 C   0  0  0  0  0  0  0  0  0  0  0  0
   -6.3133    1.0714    0.0000 C   0  0  0  0  0  0  0  0  0  0  0  0
   -4.1699   -0.7700    0.0000 C   0  0  0  0  0  0  0  0  0  0  0  0
   -3.7574   -1.4845    0.0000 C   0  0  0  0  0  0  0  0  0  0  0  0
   -4.1699   -2.1990    0.0000 N   0  0  0  0  0  0  0  0  0  0  0  0
   -3.8344   -2.9526    0.0000 N   0  0  0  0  0  0  0  0  0  0  0  0
   -4.4475   -3.5047    0.0000 C   0  0  0  0  0  0  0  0  0  0  0  0
   -4.4475   -4.3297    0.0000 C   0  0  0  0  0  0  0  0  0  0  0  0
   -5.1619   -4.7422    0.0000 C   0  0  0  0  0  0  0  0  0  0  0  0
   -5.8764   -4.3297    0.0000 C   0  0  0  0  0  0  0  0  0  0  0  0
   -5.8764   -3.5047    0.0000 C   0  0  0  0  0  0  0  0  0  0  0  0
   -5.1619   -3.0922    0.0000 C   0  0  0  0  0  0  0  0  0  0  0  0
   -4.9904   -2.2852    0.0000 N   0  0  0  0  0  0  0  0  0  0  0  0
   -2.9324   -1.4845    0.0000 C   0  0  0  0  0  0  0  0  0  0  0  0
   -2.5199   -2.1990    0.0000 O   0  0  0  0  0  0  0  0  0  0  0  0
   -0.4574   -0.0556    0.0000 C   0  0  0  0  0  0  0  0  0  0  0  0
   -0.0449   -0.7700    0.0000 O   0  0  0  0  0  0  0  0  0  0  0  0
   -0.0449    0.6589    0.0000 C   0  0  0  0  0  0  0  0  0  0  0  0
    0.7801    0.6589    0.0000 N   0  0  0  0  0  0  0  0  0  0  0  0
    1.2650    1.3264    0.0000 N   0  0  0  0  0  0  0  0  0  0  0  0
    2.0496    1.0714    0.0000 C   0  0  0  0  0  0  0  0  0  0  0  0
    2.7641    1.4839    0.0000 C   0  0  0  0  0  0  0  0  0  0  0  0
    3.4786    1.0714    0.0000 C   0  0  0  0  0  0  0  0  0  0  0  0
    3.4786    0.2464    0.0000 C   0  0  0  0  0  0  0  0  0  0  0  0
    2.7641   -0.1661    0.0000 C   0  0  0  0  0  0  0  0  0  0  0  0
    2.0496    0.2464    0.0000 C   0  0  0  0  0  0  0  0  0  0  0  0
    1.2650   -0.0085    0.0000 N   0  0  0  0  0  0  0  0  0  0  0  0
   -0.4574    1.3734    0.0000 C   0  0  0  0  0  0  0  0  0  0  0  0
  1  2  1  0  0  0  0
  2  3  1  0  0  0  0
  2  4  1  0  0  0  0
  2  5  1  0  0  0  0
  5  6  1  0  0  0  0
  6  7  1  0  0  0  0
  6  8  1  0  0  0  0
  6  9  1  0  0  0  0
 10  9  2  0  0  0  0
 11 10  1  0  0  0  0
 11 12  1  0  0  0  0
 12 13  1  0  0  0  0
 14 13  1  0  0  0  0
 15 14  2  0  0  0  0
 15 16  1  0  0  0  0
 16 17  1  0  0  0  0
 16 18  1  0  0  0  0
 16 19  1  0  0  0  0
 19 20  1  0  0  0  0
 20 21  1  0  0  0  0
 20 22  1  0  0  0  0
 20 23  1  0  0  0  0
 24 15  1  0  0  0  0
 25 24  2  0  0  0  0
 25 26  1  0  0  0  0
 27 26  1  0  0  0  0
 28 27  2  0  0  0  0
 28 29  1  0  0  0  0
 29 30  2  0  0  0  0
 30 31  1  0  0  0  0
 31 32  2  0  0  0  0
 32 33  1  0  0  0  0
 33 28  1  0  0  0  0
 34 33  2  0  0  0  0
 26 34  1  0  0  0  0
 35 25  1  0  0  0  0
 13 35  2  0  0  0  0
 35 36  1  0  0  0  0
 37 11  2  0  0  0  0
 37 38  1  0  0  0  0
 39 37  1  0  0  0  0
 39 40  1  0  0  0  0
 41 40  1  0  0  0  0
 42 41  2  0  0  0  0
 42 43  1  0  0  0  0
 43 44  2  0  0  0  0
 44 45  1  0  0  0  0
 45 46  2  0  0  0  0
 46 47  1  0  0  0  0
 47 42  1  0  0  0  0
 48 47  2  0  0  0  0
 40 48  1  0  0  0  0
 49 39  2  0  0  0  0
  9 49  1  0  0  0  0
M  END
> <RowID>
381

> <Original_SMILES>
CC(C)(C)CC(C)(C)C1=CC(CC2C=C(C=C(C=2O)N2N=C3C=CC=CC3=N2)C(C)(C)CC(C)(C)C)=C(O)C(=C1)N1N=C2C=CC=CC2=N1

> <Canonical_QSARr>
CC(C)(C)CC(C)(C)C1=CC(CC2C=C(C=C(C=2O)N2N=C3C=CC=CC3=N2)C(C)(C)CC(C)(C)C)=C(O)C(=C1)N1N=C2C=CC=CC2=N1

> <InChI_Code_QSARr>
InChI=1S/C41H50N6O2/c1-38(2,3)24-40(7,8)28-20-26(36(48)34(22-28)46-42-30-15-11-12-16-31(30)43-46)19-27-21-29(41(9,10)25-39(4,5)6)23-35(37(27)49)47-44-32-17-13-14-18-33(32)45-47/h11-18,20-23,48-49H,19,24-25H2,1-10H3

> <InChI Key_QSARr>
FQUNFJULCYSSOP-UHFFFAOYSA-N

> <Salt_Solvent>


> <Salt_Solvent_ID>
0

> <Number of connected components>
1

$$$$
Molecule_382
  Mrv2316 01072400032D          

  8  8  0  0  0  0            999 V2000
   -0.7145    1.2375    0.0000 Br  0  0  0  0  0  0  0  0  0  0  0  0
   -0.0000    0.8250    0.0000 C   0  0  0  0  0  0  0  0  0  0  0  0
   -0.0000   -0.0000    0.0000 C   0  0  0  0  0  0  0  0  0  0  0  0
    0.7145   -0.4125    0.0000 C   0  0  0  0  0  0  0  0  0  0  0  0
    1.4289   -0.0000    0.0000 C   0  0  0  0  0  0  0  0  0  0  0  0
    1.4289    0.8250    0.0000 C   0  0  0  0  0  0  0  0  0  0  0  0
    0.7145    1.2375    0.0000 C   0  0  0  0  0  0  0  0  0  0  0  0
    0.7145    2.0625    0.0000 I   0  0  0  0  0  0  0  0  0  0  0  0
  1  2  1  0  0  0  0
  3  2  1  0  0  0  0
  4  3  2  0  0  0  0
  5  4  1  0  0  0  0
  6  5  2  0  0  0  0
  7  6  1  0  0  0  0
  2  7  2  0  0  0  0
  7  8  1  0  0  0  0
M  END
> <RowID>
382

> <Original_SMILES>
BrC1C=CC=CC=1I

> <Canonical_QSARr>
BrC1C=CC=CC=1I

> <InChI_Code_QSARr>
InChI=1S/C6H4BrI/c7-5-3-1-2-4-6(5)8/h1-4H

> <InChI Key_QSARr>
OIRHKGBNGGSCGS-UHFFFAOYSA-N

> <Salt_Solvent>


> <Salt_Solvent_ID>
0

> <Number of connected components>
1

$$$$
Molecule_383
  Mrv2316 01072400032D          

 14 14  0  0  0  0            999 V2000
   -0.4167    2.0625    0.0000 C   0  0  0  0  0  0  0  0  0  0  0  0
    0.4083    2.0625    0.0000 C   0  0  0  0  0  0  0  0  0  0  0  0
    1.2333    2.0625    0.0000 C   0  0  0  0  0  0  0  0  0  0  0  0
    0.4083    2.8875    0.0000 C   0  0  0  0  0  0  0  0  0  0  0  0
   -0.3062    3.3000    0.0000 O   0  0  0  0  0  0  0  0  0  0  0  0
    1.1227    3.3000    0.0000 O   0  0  0  0  0  0  0  0  0  0  0  0
    1.1227    4.1250    0.0000 C   0  0  0  0  0  0  0  0  0  0  0  0
    1.8372    4.5375    0.0000 C   0  0  0  0  0  0  0  0  0  0  0  0
    0.4083    1.2375    0.0000 C   0  0  0  0  0  0  0  0  0  0  0  0
   -0.3062    0.8250    0.0000 C   0  0  0  0  0  0  0  0  0  0  0  0
   -0.3062   -0.0000    0.0000 C   0  0  0  0  0  0  0  0  0  0  0  0
    0.4083   -0.4125    0.0000 C   0  0  0  0  0  0  0  0  0  0  0  0
    1.1227    0.0000    0.0000 C   0  0  0  0  0  0  0  0  0  0  0  0
    1.1227    0.8250    0.0000 C   0  0  0  0  0  0  0  0  0  0  0  0
  1  2  1  0  0  0  0
  2  3  1  0  0  0  0
  2  4  1  0  0  0  0
  4  5  2  0  0  0  0
  4  6  1  0  0  0  0
  6  7  1  0  0  0  0
  7  8  1  0  0  0  0
  2  9  1  0  0  0  0
 10  9  1  0  0  0  0
 11 10  2  0  0  0  0
 12 11  1  0  0  0  0
 13 12  2  0  0  0  0
 14 13  1  0  0  0  0
  9 14  2  0  0  0  0
M  END
> <RowID>
383

> <Original_SMILES>
CC(C)(C(=O)OCC)C1C=CC=CC=1

> <Canonical_QSARr>
CC(C)(C(=O)OCC)C1C=CC=CC=1

> <InChI_Code_QSARr>
InChI=1S/C12H16O2/c1-4-14-11(13)12(2,3)10-8-6-5-7-9-10/h5-9H,4H2,1-3H3

> <InChI Key_QSARr>
OFYSAFPKXXTYLU-UHFFFAOYSA-N

> <Salt_Solvent>


> <Salt_Solvent_ID>
0

> <Number of connected components>
1

$$$$
Molecule_384
  Mrv2316 01072400032D          

 27 28  0  0  0  0            999 V2000
    5.0013   -6.1875    0.0000 C   0  0  0  0  0  0  0  0  0  0  0  0
    5.0013   -5.3625    0.0000 C   0  0  0  0  0  0  0  0  0  0  0  0
    5.7158   -4.9500    0.0000 C   0  0  0  0  0  0  0  0  0  0  0  0
    4.2868   -4.9500    0.0000 C   0  0  0  0  0  0  0  0  0  0  0  0
    4.2868   -4.1250    0.0000 C   0  0  0  0  0  0  0  0  0  0  0  0
    3.5724   -3.7125    0.0000 C   0  0  0  0  0  0  0  0  0  0  0  0
    3.5724   -2.8875    0.0000 C   0  0  0  0  0  0  0  0  0  0  0  0
    2.8579   -2.4750    0.0000 C   0  0  0  0  0  0  0  0  0  0  0  0
    2.8579   -1.6500    0.0000 C   0  0  0  0  0  0  0  0  0  0  0  0
    2.1434   -1.2375    0.0000 C   0  0  0  0  0  0  0  0  0  0  0  0
    2.1434   -0.4125    0.0000 C   0  0  0  0  0  0  0  0  0  0  0  0
    1.4289   -0.0000    0.0000 C   0  0  0  0  0  0  0  0  0  0  0  0
    2.8579    0.0000    0.0000 C   0  0  0  0  0  0  0  0  0  0  0  0
    1.4289   -1.6500    0.0000 C   0  0  0  0  0  0  0  0  0  0  0  0
    0.7145   -1.2375    0.0000 N   0  0  0  0  0  0  0  0  0  0  0  0
    1.4289   -2.4750    0.0000 C   0  0  0  0  0  0  0  0  0  0  0  0
    0.7145   -2.8875    0.0000 C   0  0  0  0  0  0  0  0  0  0  0  0
    0.7145   -3.7125    0.0000 C   0  0  0  0  0  0  0  0  0  0  0  0
    0.0000   -2.4750    0.0000 C   0  0  0  0  0  0  0  0  0  0  0  0
    2.1434   -2.8875    0.0000 C   0  0  0  0  0  0  0  0  0  0  0  0
    2.8579   -4.1250    0.0000 C   0  0  0  0  0  0  0  0  0  0  0  0
    2.8579   -4.9500    0.0000 C   0  0  0  0  0  0  0  0  0  0  0  0
    2.1434   -5.3625    0.0000 C   0  0  0  0  0  0  0  0  0  0  0  0
    2.1434   -6.1875    0.0000 C   0  0  0  0  0  0  0  0  0  0  0  0
    1.4289   -4.9500    0.0000 C   0  0  0  0  0  0  0  0  0  0  0  0
    3.5724   -5.3625    0.0000 C   0  0  0  0  0  0  0  0  0  0  0  0
    3.5724   -6.1875    0.0000 N   0  0  0  0  0  0  0  0  0  0  0  0
  1  2  1  0  0  0  0
  2  3  1  0  0  0  0
  2  4  1  0  0  0  0
  5  4  1  0  0  0  0
  6  5  2  0  0  0  0
  6  7  1  0  0  0  0
  7  8  1  0  0  0  0
  9  8  2  0  0  0  0
 10  9  1  0  0  0  0
 10 11  1  0  0  0  0
 11 12  1  0  0  0  0
 11 13  1  0  0  0  0
 14 10  2  0  0  0  0
 14 15  1  0  0  0  0
 16 14  1  0  0  0  0
 16 17  1  0  0  0  0
 17 18  1  0  0  0  0
 17 19  1  0  0  0  0
 20 16  2  0  0  0  0
  8 20  1  0  0  0  0
 21  6  1  0  0  0  0
 22 21  2  0  0  0  0
 22 23  1  0  0  0  0
 23 24  1  0  0  0  0
 23 25  1  0  0  0  0
 26 22  1  0  0  0  0
  4 26  2  0  0  0  0
 26 27  1  0  0  0  0
M  END
> <RowID>
384

> <Original_SMILES>
CC(C)C1C=C(CC2=CC(C(C)C)=C(N)C(=C2)C(C)C)C=C(C(C)C)C=1N

> <Canonical_QSARr>
CC(C)C1C=C(CC2=CC(C(C)C)=C(N)C(=C2)C(C)C)C=C(C(C)C)C=1N

> <InChI_Code_QSARr>
InChI=1S/C25H38N2/c1-14(2)20-10-18(11-21(15(3)4)24(20)26)9-19-12-22(16(5)6)25(27)23(13-19)17(7)8/h10-17H,9,26-27H2,1-8H3

> <InChI Key_QSARr>
KZTROCYBPMKGAW-UHFFFAOYSA-N

> <Salt_Solvent>


> <Salt_Solvent_ID>
0

> <Number of connected components>
1

$$$$
Molecule_385
  Mrv2316 01072400032D          

 13 13  0  0  0  0            999 V2000
    0.7145   -0.2221    0.0000 O   0  0  0  0  0  0  0  0  0  0  0  0
    0.7145   -1.0471    0.0000 C   0  0  0  0  0  0  0  0  0  0  0  0
    1.4289   -1.4596    0.0000 C   0  0  0  0  0  0  0  0  0  0  0  0
    2.1434   -1.0471    0.0000 C   0  0  0  0  0  0  0  0  0  0  0  0
    2.8579   -1.4596    0.0000 C   0  0  0  0  0  0  0  0  0  0  0  0
    3.5724   -1.0471    0.0000 Cl  0  0  0  0  0  0  0  0  0  0  0  0
    0.0000   -1.4596    0.0000 C   0  0  0  0  0  0  0  0  0  0  0  0
   -0.7145   -1.0471    0.0000 C   0  0  0  0  0  0  0  0  0  0  0  0
   -1.4289   -1.4596    0.0000 C   0  0  0  0  0  0  0  0  0  0  0  0
   -1.4289   -2.2846    0.0000 C   0  0  0  0  0  0  0  0  0  0  0  0
   -2.1434   -2.6971    0.0000 F   0  0  0  0  0  0  0  0  0  0  0  0
   -0.7145   -2.6971    0.0000 C   0  0  0  0  0  0  0  0  0  0  0  0
    0.0000   -2.2846    0.0000 C   0  0  0  0  0  0  0  0  0  0  0  0
  1  2  2  0  0  0  0
  2  3  1  0  0  0  0
  3  4  1  0  0  0  0
  4  5  1  0  0  0  0
  5  6  1  0  0  0  0
  2  7  1  0  0  0  0
  8  7  1  0  0  0  0
  9  8  2  0  0  0  0
 10  9  1  0  0  0  0
 10 11  1  0  0  0  0
 12 10  2  0  0  0  0
 13 12  1  0  0  0  0
  7 13  2  0  0  0  0
M  END
> <RowID>
385

> <Original_SMILES>
O=C(CCCCl)C1C=CC(F)=CC=1

> <Canonical_QSARr>
O=C(CCCCl)C1C=CC(F)=CC=1

> <InChI_Code_QSARr>
InChI=1S/C10H10ClFO/c11-7-1-2-10(13)8-3-5-9(12)6-4-8/h3-6H,1-2,7H2

> <InChI Key_QSARr>
HXAOUYGZEOZTJO-UHFFFAOYSA-N

> <Salt_Solvent>


> <Salt_Solvent_ID>
0

> <Number of connected components>
1

$$$$
Molecule_386
  Mrv2316 01072400032D          

 20 20  0  0  0  0            999 V2000
   -4.6083    0.5569    0.0000 C   0  0  0  0  0  0  0  0  0  0  0  0
   -3.8939    0.9694    0.0000 C   0  0  0  0  0  0  0  0  0  0  0  0
   -3.8939    1.7944    0.0000 O   0  0  0  0  0  0  0  0  0  0  0  0
   -3.1794    0.5569    0.0000 C   0  0  0  0  0  0  0  0  0  0  0  0
   -2.4649    0.9694    0.0000 C   0  0  0  0  0  0  0  0  0  0  0  0
   -2.4649    1.7944    0.0000 O   0  0  0  0  0  0  0  0  0  0  0  0
   -1.7504    0.5569    0.0000 N   0  0  0  0  0  0  0  0  0  0  0  0
   -1.0360    0.9694    0.0000 C   0  0  0  0  0  0  0  0  0  0  0  0
   -0.3215    0.5569    0.0000 C   0  0  0  0  0  0  0  0  0  0  0  0
    0.3930    0.9694    0.0000 C   0  0  0  0  0  0  0  0  0  0  0  0
    0.3930    1.7944    0.0000 C   0  0  0  0  0  0  0  0  0  0  0  0
    1.1074    2.2069    0.0000 N   0  0  0  0  0  0  0  0  0  0  0  0
    1.8219    1.7944    0.0000 C   0  0  0  0  0  0  0  0  0  0  0  0
    1.8219    0.9694    0.0000 O   0  0  0  0  0  0  0  0  0  0  0  0
    2.5364    2.2069    0.0000 C   0  0  0  0  0  0  0  0  0  0  0  0
    3.2509    1.7944    0.0000 C   0  0  0  0  0  0  0  0  0  0  0  0
    3.9653    2.2069    0.0000 C   0  0  0  0  0  0  0  0  0  0  0  0
    3.2509    0.9694    0.0000 O   0  0  0  0  0  0  0  0  0  0  0  0
   -0.3215    2.2069    0.0000 C   0  0  0  0  0  0  0  0  0  0  0  0
   -1.0360    1.7944    0.0000 C   0  0  0  0  0  0  0  0  0  0  0  0
  1  2  1  0  0  0  0
  2  3  2  0  0  0  0
  2  4  1  0  0  0  0
  4  5  1  0  0  0  0
  5  6  2  0  0  0  0
  5  7  1  0  0  0  0
  7  8  1  0  0  0  0
  9  8  1  0  0  0  0
 10  9  2  0  0  0  0
 11 10  1  0  0  0  0
 11 12  1  0  0  0  0
 12 13  1  0  0  0  0
 13 14  2  0  0  0  0
 13 15  1  0  0  0  0
 15 16  1  0  0  0  0
 16 17  1  0  0  0  0
 16 18  2  0  0  0  0
 19 11  2  0  0  0  0
 20 19  1  0  0  0  0
  8 20  2  0  0  0  0
M  END
> <RowID>
386

> <Original_SMILES>
CC(=O)CC(=O)NC1C=CC(=CC=1)NC(=O)CC(C)=O

> <Canonical_QSARr>
CC(=O)CC(=O)NC1C=CC(=CC=1)NC(=O)CC(C)=O

> <InChI_Code_QSARr>
InChI=1S/C14H16N2O4/c1-9(17)7-13(19)15-11-3-5-12(6-4-11)16-14(20)8-10(2)18/h3-6H,7-8H2,1-2H3,(H,15,19)(H,16,20)

> <InChI Key_QSARr>
OWGNKUKYZPVEFS-UHFFFAOYSA-N

> <Salt_Solvent>


> <Salt_Solvent_ID>
0

> <Number of connected components>
1

$$$$
Molecule_387
  Mrv2316 01072400032D          

 16 15  0  0  0  0            999 V2000
   -0.9059   -1.9520    0.0000 C   0  0  0  0  0  0  0  0  0  0  0  0
   -0.9059   -1.1270    0.0000 C   0  0  0  0  0  0  0  0  0  0  0  0
   -1.6204   -0.7145    0.0000 C   0  0  0  0  0  0  0  0  0  0  0  0
   -0.1914   -0.7145    0.0000 C   0  0  0  0  0  0  0  0  0  0  0  0
   -0.1914    0.1105    0.0000 O   0  0  0  0  0  0  0  0  0  0  0  0
    0.5230   -1.1270    0.0000 O   0  0  0  0  0  0  0  0  0  0  0  0
    1.2375   -0.7145    0.0000 Si  0  0  0  0  0  0  0  0  0  0  0  0
    1.9520   -0.3020    0.0000 C   0  0  0  0  0  0  0  0  0  0  0  0
    1.9520    0.5230    0.0000 C   0  0  0  0  0  0  0  0  0  0  0  0
    2.6664   -0.7145    0.0000 C   0  0  0  0  0  0  0  0  0  0  0  0
    1.6500   -1.4290    0.0000 C   0  0  0  0  0  0  0  0  0  0  0  0
    2.4750   -1.4290    0.0000 C   0  0  0  0  0  0  0  0  0  0  0  0
    1.2375   -2.1434    0.0000 C   0  0  0  0  0  0  0  0  0  0  0  0
    0.8250   -0.0000    0.0000 C   0  0  0  0  0  0  0  0  0  0  0  0
    1.2375    0.7145    0.0000 C   0  0  0  0  0  0  0  0  0  0  0  0
    0.1576    0.4849    0.0000 C   0  0  0  0  0  0  0  0  0  0  0  0
  1  2  1  0  0  0  0
  2  3  2  0  0  0  0
  2  4  1  0  0  0  0
  4  5  2  0  0  0  0
  4  6  1  0  0  0  0
  6  7  1  0  0  0  0
  7  8  1  0  0  0  0
  8  9  1  0  0  0  0
  8 10  1  0  0  0  0
  7 11  1  0  0  0  0
 11 12  1  0  0  0  0
 11 13  1  0  0  0  0
  7 14  1  0  0  0  0
 14 15  1  0  0  0  0
 14 16  1  0  0  0  0
M  END
> <RowID>
387

> <Original_SMILES>
CC(=C)C(=O)O[Si](C(C)C)(C(C)C)C(C)C

> <Canonical_QSARr>
CC(=C)C(=O)O[Si](C(C)C)(C(C)C)C(C)C

> <InChI_Code_QSARr>
InChI=1S/C13H26O2Si/c1-9(2)13(14)15-16(10(3)4,11(5)6)12(7)8/h10-12H,1H2,2-8H3

> <InChI Key_QSARr>
KNNOZYMZRGTZQM-UHFFFAOYSA-N

> <Salt_Solvent>


> <Salt_Solvent_ID>
0

> <Number of connected components>
1

$$$$
Molecule_389
  Mrv2316 01072400032D          

 57 63  0  0  0  0            999 V2000
   -9.3114   -8.5577    0.0000 O   0  0  0  0  0  0  0  0  0  0  0  0
   -8.6814   -8.0251    0.0000 S   0  0  0  0  0  0  0  0  0  0  0  0
   -8.1488   -8.6551    0.0000 O   0  0  0  0  0  0  0  0  0  0  0  0
   -9.2140   -7.3950    0.0000 O   0  0  0  0  0  0  0  0  0  0  0  0
   -8.0513   -7.4925    0.0000 C   0  0  0  0  0  0  0  0  0  0  0  0
   -8.1976   -6.6805    0.0000 C   0  0  0  0  0  0  0  0  0  0  0  0
   -7.5675   -6.1479    0.0000 C   0  0  0  0  0  0  0  0  0  0  0  0
   -7.7138   -5.3360    0.0000 C   0  0  0  0  0  0  0  0  0  0  0  0
   -7.0838   -4.8033    0.0000 N   0  3  0  0  0  0  0  0  0  0  0  0
   -7.1443   -3.9806    0.0000 C   0  0  0  0  0  0  0  0  0  0  0  0
   -7.8456   -3.5460    0.0000 C   0  0  0  0  0  0  0  0  0  0  0  0
   -7.8198   -2.7214    0.0000 C   0  0  0  0  0  0  0  0  0  0  0  0
   -8.5210   -2.2868    0.0000 C   0  0  0  0  0  0  0  0  0  0  0  0
   -8.4953   -1.4622    0.0000 C   0  0  0  0  0  0  0  0  0  0  0  0
   -7.7683   -1.0722    0.0000 Cl  0  0  0  0  0  0  0  0  0  0  0  0
   -9.1965   -1.0276    0.0000 C   0  0  0  0  0  0  0  0  0  0  0  0
   -9.1708   -0.2030    0.0000 C   0  0  0  0  0  0  0  0  0  0  0  0
   -9.8720    0.2317    0.0000 C   0  0  0  0  0  0  0  0  0  0  0  0
   -9.8462    1.0563    0.0000 C   0  0  0  0  0  0  0  0  0  0  0  0
   -9.1640    1.5201    0.0000 C   0  0  0  0  0  0  0  0  0  0  0  0
   -8.7740    0.7931    0.0000 C   0  0  0  0  0  0  0  0  0  0  0  0
   -8.4002    1.8320    0.0000 C   0  0  0  0  0  0  0  0  0  0  0  0
   -9.3943    2.3123    0.0000 C   0  0  0  0  0  0  0  0  0  0  0  0
  -10.2189    2.3381    0.0000 C   0  0  0  0  0  0  0  0  0  0  0  0
  -10.6089    3.0651    0.0000 C   0  0  0  0  0  0  0  0  0  0  0  0
  -10.1743    3.7663    0.0000 C   0  0  0  0  0  0  0  0  0  0  0  0
   -9.3497    3.7405    0.0000 C   0  0  0  0  0  0  0  0  0  0  0  0
   -8.9597    3.0135    0.0000 C   0  0  0  0  0  0  0  0  0  0  0  0
   -8.1351    2.9878    0.0000 C   0  0  0  0  0  0  0  0  0  0  0  0
   -7.7005    3.6890    0.0000 C   0  0  0  0  0  0  0  0  0  0  0  0
   -8.0905    4.4160    0.0000 C   0  0  0  0  0  0  0  0  0  0  0  0
   -8.9151    4.4418    0.0000 C   0  0  0  0  0  0  0  0  0  0  0  0
  -10.4982    1.5618    0.0000 N   0  0  0  0  0  0  0  0  0  0  0  0
  -11.2904    1.3315    0.0000 C   0  0  0  0  0  0  0  0  0  0  0  0
  -11.8860    1.9024    0.0000 C   0  0  0  0  0  0  0  0  0  0  0  0
  -12.6782    1.6721    0.0000 C   0  0  0  0  0  0  0  0  0  0  0  0
  -13.2737    2.2430    0.0000 C   0  0  0  0  0  0  0  0  0  0  0  0
  -14.0659    2.0127    0.0000 S   0  0  0  0  0  0  0  0  0  0  0  0
  -14.8581    1.7824    0.0000 O   0  0  0  0  0  0  0  0  0  0  0  0
  -14.2962    2.8049    0.0000 O   0  0  0  0  0  0  0  0  0  0  0  0
  -13.8356    1.2205    0.0000 O   0  0  0  0  0  0  0  0  0  0  0  0
   -9.9235   -1.4175    0.0000 C   0  0  0  0  0  0  0  0  0  0  0  0
   -9.9493   -2.2421    0.0000 C   0  0  0  0  0  0  0  0  0  0  0  0
   -9.2481   -2.6767    0.0000 C   0  0  0  0  0  0  0  0  0  0  0  0
   -6.3805   -3.6687    0.0000 C   0  0  0  0  0  0  0  0  0  0  0  0
   -6.7705   -2.9417    0.0000 C   0  0  0  0  0  0  0  0  0  0  0  0
   -5.6983   -3.2049    0.0000 C   0  0  0  0  0  0  0  0  0  0  0  0
   -5.8479   -4.2988    0.0000 C   0  0  0  0  0  0  0  0  0  0  0  0
   -5.0233   -4.3245    0.0000 C   0  0  0  0  0  0  0  0  0  0  0  0
   -4.6333   -5.0515    0.0000 C   0  0  0  0  0  0  0  0  0  0  0  0
   -5.0680   -5.7528    0.0000 C   0  0  0  0  0  0  0  0  0  0  0  0
   -5.8925   -5.7270    0.0000 C   0  0  0  0  0  0  0  0  0  0  0  0
   -6.2825   -5.0000    0.0000 C   0  0  0  0  0  0  0  0  0  0  0  0
   -3.8087   -5.0773    0.0000 C   0  0  0  0  0  0  0  0  0  0  0  0
   -3.3741   -4.3760    0.0000 C   0  0  0  0  0  0  0  0  0  0  0  0
   -3.7641   -3.6490    0.0000 C   0  0  0  0  0  0  0  0  0  0  0  0
   -4.5887   -3.6233    0.0000 C   0  0  0  0  0  0  0  0  0  0  0  0
  1  2  1  0  0  0  0
  2  3  2  0  0  0  0
  2  4  2  0  0  0  0
  2  5  1  0  0  0  0
  5  6  1  0  0  0  0
  6  7  1  0  0  0  0
  7  8  1  0  0  0  0
  8  9  1  0  0  0  0
 10  9  2  0  0  0  0
 11 10  1  4  0  0  0
 11 12  2  0  0  0  0
 12 13  1  0  0  0  0
 14 13  2  0  0  0  0
 14 15  1  0  0  0  0
 16 14  1  0  0  0  0
 16 17  2  0  0  0  0
 17 18  1  4  0  0  0
 18 19  2  0  0  0  0
 19 20  1  4  0  0  0
 20 21  1  0  0  0  0
 20 22  1  0  0  0  0
 23 20  1  0  0  0  0
 23 24  2  0  0  0  0
 24 25  1  0  0  0  0
 25 26  2  0  0  0  0
 26 27  1  0  0  0  0
 28 27  2  0  0  0  0
 28 23  1  0  0  0  0
 29 28  1  0  0  0  0
 30 29  2  0  0  0  0
 31 30  1  0  0  0  0
 32 31  2  0  0  0  0
 27 32  1  0  0  0  0
 33 24  1  0  0  0  0
 19 33  1  0  0  0  0
 33 34  1  0  0  0  0
 34 35  1  0  0  0  0
 35 36  1  0  0  0  0
 36 37  1  0  0  0  0
 37 38  1  0  0  0  0
 38 39  1  0  0  0  0
 38 40  2  0  0  0  0
 38 41  2  0  0  0  0
 42 16  1  0  0  0  0
 43 42  1  0  0  0  0
 44 43  1  0  0  0  0
 13 44  1  0  0  0  0
 45 10  1  0  0  0  0
 45 46  1  0  0  0  0
 45 47  1  0  0  0  0
 48 45  1  0  0  0  0
 48 49  1  0  0  0  0
 50 49  2  0  0  0  0
 50 51  1  0  0  0  0
 51 52  2  0  0  0  0
 52 53  1  0  0  0  0
  9 53  1  0  0  0  0
 53 48  2  0  0  0  0
 54 50  1  0  0  0  0
 55 54  2  0  0  0  0
 56 55  1  0  0  0  0
 57 56  2  0  0  0  0
 49 57  1  0  0  0  0
M  CHG  1   9   1
M  END
> <RowID>
389

> <Original_SMILES>
[NH4+].CC1(C)C2=C(C=CC3C=CC=CC=32)[N+](CCCCS([O-])(=O)=O)=C1C=CC1CCCC(=CC=C2N(CCCCS([O-])(=O)=O)C3C=CC4C=CC=CC=4C=3C2(C)C)C=1Cl

> <Canonical_QSARr>
CC1(C)C2=C(C=CC3C=CC=CC=32)[N+](CCCCS(O)(=O)=O)=C1C=CC1CCCC(=CC=C2N(CCCCS(O)(=O)=O)C3C=CC4C=CC=CC=4C=3C2(C)C)C=1Cl

> <InChI_Code_QSARr>
InChI=1S/C46H51ClN2O6S2/c1-45(2)40(48(28-9-11-30-56(50,51)52)38-24-20-32-14-5-7-18-36(32)42(38)45)26-22-34-16-13-17-35(44(34)47)23-27-41-46(3,4)43-37-19-8-6-15-33(37)21-25-39(43)49(41)29-10-12-31-57(53,54)55/h5-8,14-15,18-27H,9-13,16-17,28-31H2,1-4H3,(H-,50,51,52,53,54,55)/p+1

> <InChI Key_QSARr>
AWZSJBDJHOOBGX-UHFFFAOYSA-O

> <Salt_Solvent>
[NH4+]

> <Salt_Solvent_ID>
70

> <Number of connected components>
2

$$$$
Molecule_390
  Mrv2316 01072400032D          

 11 10  0  0  0  0            999 V2000
    0.8250   -0.8250    0.0000 C   0  0  0  0  0  0  0  0  0  0  0  0
    0.8250    0.0000    0.0000 N   0  3  0  0  0  0  0  0  0  0  0  0
    0.8250    0.8250    0.0000 C   0  0  0  0  0  0  0  0  0  0  0  0
    1.5395    1.2375    0.0000 C   0  0  0  0  0  0  0  0  0  0  0  0
    1.5395    2.0625    0.0000 C   0  0  0  0  0  0  0  0  0  0  0  0
    2.2539    2.4750    0.0000 C   0  0  0  0  0  0  0  0  0  0  0  0
    2.2539    3.3000    0.0000 O   0  0  0  0  0  0  0  0  0  0  0  0
    2.9684    2.0625    0.0000 O   0  0  0  0  0  0  0  0  0  0  0  0
    2.2539    0.8250    0.0000 O   0  0  0  0  0  0  0  0  0  0  0  0
    1.6500    0.0000    0.0000 C   0  0  0  0  0  0  0  0  0  0  0  0
   -0.0000    0.0000    0.0000 C   0  0  0  0  0  0  0  0  0  0  0  0
  1  2  1  0  0  0  0
  2  3  1  0  0  0  0
  3  4  1  0  0  0  0
  4  5  1  0  0  0  0
  5  6  1  0  0  0  0
  6  7  2  0  0  0  0
  6  8  1  0  0  0  0
  4  9  1  0  0  0  0
  2 10  1  0  0  0  0
  2 11  1  0  0  0  0
M  CHG  1   2   1
M  END
> <RowID>
390

> <Original_SMILES>
C[N+](C)(C)CC(O)CC(O)=O.C[N+](C)(C)CC(O)CC(O)=O.[O-]C(=O)C(O)C(O)C([O-])=O

> <Canonical_QSARr>
C[N+](C)(C)CC(O)CC(O)=O

> <InChI_Code_QSARr>
InChI=1S/C7H15NO3/c1-8(2,3)5-6(9)4-7(10)11/h6,9H,4-5H2,1-3H3/p+1

> <InChI Key_QSARr>
PHIQHXFUZVPYII-UHFFFAOYSA-O

> <Salt_Solvent>
[O-]C(C(C(C(=O)[O-])O)O)=O

> <Salt_Solvent_ID>
3126

> <Number of connected components>
3

$$$$
Molecule_391
  Mrv2316 01072400032D          

 29 30  0  0  0  0            999 V2000
   -6.9969    2.5888    0.0000 C   0  0  0  0  0  0  0  0  0  0  0  0
   -6.9969    3.4138    0.0000 C   0  0  0  0  0  0  0  0  0  0  0  0
   -6.2824    3.8263    0.0000 C   0  0  0  0  0  0  0  0  0  0  0  0
   -6.2824    4.6513    0.0000 C   0  0  0  0  0  0  0  0  0  0  0  0
   -5.5679    5.0638    0.0000 O   0  0  0  0  0  0  0  0  0  0  0  0
   -5.5679    5.8888    0.0000 C   0  0  0  0  0  0  0  0  0  0  0  0
   -6.2824    6.3013    0.0000 O   0  0  0  0  0  0  0  0  0  0  0  0
   -4.8535    6.3013    0.0000 N   0  0  0  0  0  0  0  0  0  0  0  0
   -4.1390    5.8888    0.0000 C   0  0  0  0  0  0  0  0  0  0  0  0
   -4.1390    5.0638    0.0000 C   0  0  0  0  0  0  0  0  0  0  0  0
   -3.4245    4.6513    0.0000 C   0  0  0  0  0  0  0  0  0  0  0  0
   -2.7100    5.0638    0.0000 C   0  0  0  0  0  0  0  0  0  0  0  0
   -1.9956    4.6513    0.0000 C   0  0  0  0  0  0  0  0  0  0  0  0
   -1.2811    5.0638    0.0000 C   0  0  0  0  0  0  0  0  0  0  0  0
   -0.5666    4.6513    0.0000 C   0  0  0  0  0  0  0  0  0  0  0  0
    0.1478    5.0638    0.0000 C   0  0  0  0  0  0  0  0  0  0  0  0
    0.1478    5.8888    0.0000 C   0  0  0  0  0  0  0  0  0  0  0  0
    0.8623    6.3013    0.0000 N   0  0  0  0  0  0  0  0  0  0  0  0
    1.5768    5.8888    0.0000 C   0  0  0  0  0  0  0  0  0  0  0  0
    1.5768    5.0638    0.0000 O   0  0  0  0  0  0  0  0  0  0  0  0
    2.2913    6.3013    0.0000 O   0  0  0  0  0  0  0  0  0  0  0  0
    3.0057    5.8888    0.0000 C   0  0  0  0  0  0  0  0  0  0  0  0
    3.7202    6.3013    0.0000 C   0  0  0  0  0  0  0  0  0  0  0  0
    4.4347    5.8888    0.0000 C   0  0  0  0  0  0  0  0  0  0  0  0
    5.1491    6.3013    0.0000 C   0  0  0  0  0  0  0  0  0  0  0  0
   -0.5666    6.3013    0.0000 C   0  0  0  0  0  0  0  0  0  0  0  0
   -1.2811    5.8888    0.0000 C   0  0  0  0  0  0  0  0  0  0  0  0
   -2.7100    5.8888    0.0000 C   0  0  0  0  0  0  0  0  0  0  0  0
   -3.4245    6.3013    0.0000 C   0  0  0  0  0  0  0  0  0  0  0  0
  1  2  1  0  0  0  0
  2  3  1  0  0  0  0
  3  4  1  0  0  0  0
  4  5  1  0  0  0  0
  5  6  1  0  0  0  0
  6  7  2  0  0  0  0
  6  8  1  0  0  0  0
  8  9  1  0  0  0  0
 10  9  1  0  0  0  0
 11 10  1  0  0  0  0
 12 11  1  0  0  0  0
 12 13  1  0  0  0  0
 13 14  1  0  0  0  0
 15 14  1  0  0  0  0
 16 15  1  0  0  0  0
 17 16  1  0  0  0  0
 17 18  1  0  0  0  0
 18 19  1  0  0  0  0
 19 20  2  0  0  0  0
 19 21  1  0  0  0  0
 21 22  1  0  0  0  0
 22 23  1  0  0  0  0
 23 24  1  0  0  0  0
 24 25  1  0  0  0  0
 26 17  1  0  0  0  0
 27 26  1  0  0  0  0
 14 27  1  0  0  0  0
 28 12  1  0  0  0  0
 29 28  1  0  0  0  0
  9 29  1  0  0  0  0
M  END
> <RowID>
391

> <Original_SMILES>
CCCCOC(=O)NC1CCC(CC2CCC(CC2)NC(=O)OCCCC)CC1

> <Canonical_QSARr>
CCCCOC(=O)NC1CCC(CC2CCC(CC2)NC(=O)OCCCC)CC1

> <InChI_Code_QSARr>
InChI=1S/C23H42N2O4/c1-3-5-15-28-22(26)24-20-11-7-18(8-12-20)17-19-9-13-21(14-10-19)25-23(27)29-16-6-4-2/h18-21H,3-17H2,1-2H3,(H,24,26)(H,25,27)

> <InChI Key_QSARr>
XPMSIFQMNOZZLL-UHFFFAOYSA-N

> <Salt_Solvent>


> <Salt_Solvent_ID>
0

> <Number of connected components>
1

$$$$
Molecule_392
  Mrv2316 01072400032D          

  8  8  0  0  0  0            999 V2000
    0.1654   -1.0853    0.0000 O   0  0  0  0  0  0  0  0  0  0  0  0
   -0.1701   -0.3317    0.0000 C   0  0  0  0  0  0  0  0  0  0  0  0
    0.3148    0.3358    0.0000 C   0  0  0  0  0  0  0  0  0  0  0  0
    1.1398    0.3358    0.0000 C   0  0  0  0  0  0  0  0  0  0  0  0
    1.3948    1.1204    0.0000 O   0  0  0  0  0  0  0  0  0  0  0  0
    0.7273    1.6053    0.0000 C   0  0  0  0  0  0  0  0  0  0  0  0
    0.7273    2.4303    0.0000 O   0  0  0  0  0  0  0  0  0  0  0  0
    0.0599    1.1204    0.0000 O   0  0  0  0  0  0  0  0  0  0  0  0
  1  2  1  0  0  0  0
  2  3  1  0  0  0  0
  4  3  1  0  0  0  0
  5  4  1  0  0  0  0
  6  5  1  0  0  0  0
  6  7  2  0  0  0  0
  8  6  1  0  0  0  0
  3  8  1  0  0  0  0
M  END
> <RowID>
392

> <Original_SMILES>
OCC1COC(=O)O1

> <Canonical_QSARr>
OCC1COC(=O)O1

> <InChI_Code_QSARr>
InChI=1S/C4H6O4/c5-1-3-2-7-4(6)8-3/h3,5H,1-2H2

> <InChI Key_QSARr>
JFMGYULNQJPJCY-UHFFFAOYSA-N

> <Salt_Solvent>


> <Salt_Solvent_ID>
0

> <Number of connected components>
1

$$$$
Molecule_393
  Mrv2316 01072400032D          

  9  9  0  0  0  0            999 V2000
    2.1434   -0.4125    0.0000 N   0  0  0  0  0  0  0  0  0  0  0  0
    1.4289   -0.0000    0.0000 C   0  0  0  0  0  0  0  0  0  0  0  0
    1.4289    0.8250    0.0000 N   0  0  0  0  0  0  0  0  0  0  0  0
    0.7145    1.2375    0.0000 C   0  0  0  0  0  0  0  0  0  0  0  0
    0.7145    2.0625    0.0000 N   0  0  0  0  0  0  0  0  0  0  0  0
   -0.0000    0.8250    0.0000 N   0  0  0  0  0  0  0  0  0  0  0  0
   -0.0000    0.0000    0.0000 C   0  0  0  0  0  0  0  0  0  0  0  0
   -0.7145   -0.4125    0.0000 N   0  0  0  0  0  0  0  0  0  0  0  0
    0.7145   -0.4125    0.0000 N   0  0  0  0  0  0  0  0  0  0  0  0
  1  2  2  0  0  0  0
  3  2  1  0  0  0  0
  4  3  2  0  0  0  0
  4  5  1  0  0  0  0
  6  4  1  0  0  0  0
  7  6  2  0  0  0  0
  7  8  1  0  0  0  0
  9  7  1  0  0  0  0
  2  9  1  0  0  0  0
M  END
> <RowID>
393

> <Original_SMILES>
NC1NC(=[NH2+])N=C(N)N=1.NC1NC(=[NH2+])N=C(N)N=1.[O-]P1(=O)O[Zn]OP([O-])(=O)O1

> <Canonical_QSARr>
NC1N=C(N)NC(=N)N=1

> <InChI_Code_QSARr>
InChI=1S/C3H6N6/c4-1-7-2(5)9-3(6)8-1/h(H6,4,5,6,7,8,9)

> <InChI Key_QSARr>
JDSHMPZPIAZGSV-UHFFFAOYSA-N

> <Salt_Solvent>
[O-]P1(OP(=O)([O-])O[Zn]O1)=O

> <Salt_Solvent_ID>
3904

> <Number of connected components>
3

$$$$
Molecule_395
  Mrv2316 01072400032D          

 29 34  0  0  0  0            999 V2000
    3.4639   -1.5545    0.0000 C   0  0  0  0  0  0  0  0  0  0  0  0
    3.8620   -2.2771    0.0000 C   0  0  0  0  0  0  0  0  0  0  0  0
    4.3602   -1.6195    0.0000 C   0  0  0  0  0  0  0  0  0  0  0  0
    5.1788   -1.7222    0.0000 C   0  0  0  0  0  0  0  0  0  0  0  0
    5.4992   -2.4824    0.0000 C   0  0  0  0  0  0  0  0  0  0  0  0
    5.0010   -3.1400    0.0000 C   0  0  0  0  0  0  0  0  0  0  0  0
    5.3214   -3.9003    0.0000 C   0  0  0  0  0  0  0  0  0  0  0  0
    6.1400   -4.0029    0.0000 C   0  0  0  0  0  0  0  0  0  0  0  0
    6.6382   -3.3453    0.0000 C   0  0  0  0  0  0  0  0  0  0  0  0
    7.4568   -3.4480    0.0000 C   0  0  0  0  0  0  0  0  0  0  0  0
    7.9550   -2.7904    0.0000 C   0  0  0  0  0  0  0  0  0  0  0  0
    8.3531   -3.5130    0.0000 O   0  0  0  0  0  0  0  0  0  0  0  0
    9.1633   -3.3577    0.0000 C   0  0  0  0  0  0  0  0  0  0  0  0
    9.2660   -2.5391    0.0000 C   0  0  0  0  0  0  0  0  0  0  0  0
    8.5192   -2.1885    0.0000 O   0  0  0  0  0  0  0  0  0  0  0  0
    7.6346   -2.0302    0.0000 C   0  0  0  0  0  0  0  0  0  0  0  0
    6.8160   -1.9275    0.0000 C   0  0  0  0  0  0  0  0  0  0  0  0
    6.3178   -2.5851    0.0000 C   0  0  0  0  0  0  0  0  0  0  0  0
    5.9974   -1.8248    0.0000 C   0  0  0  0  0  0  0  0  0  0  0  0
    4.1824   -3.0374    0.0000 C   0  0  0  0  0  0  0  0  0  0  0  0
    3.5584   -3.5770    0.0000 C   0  0  0  0  0  0  0  0  0  0  0  0
    2.8523   -3.1503    0.0000 C   0  0  0  0  0  0  0  0  0  0  0  0
    3.0400   -2.3469    0.0000 C   0  0  0  0  0  0  0  0  0  0  0  0
    2.5003   -1.7229    0.0000 C   0  0  0  0  0  0  0  0  0  0  0  0
    1.9361   -2.3248    0.0000 C   0  0  0  0  0  0  0  0  0  0  0  0
    3.1773   -1.2514    0.0000 O   0  0  0  0  0  0  0  0  0  0  0  0
    2.9382   -0.4618    0.0000 C   0  0  0  0  0  0  0  0  0  0  0  0
    2.1133   -0.4453    0.0000 C   0  0  0  0  0  0  0  0  0  0  0  0
    1.8427   -1.2247    0.0000 O   0  0  0  0  0  0  0  0  0  0  0  0
  1  2  1  0  0  0  0
  3  2  1  0  0  0  0
  4  3  1  0  0  0  0
  5  4  1  0  0  0  0
  5  6  1  0  0  0  0
  6  7  2  0  0  0  0
  7  8  1  0  0  0  0
  8  9  2  0  0  0  0
 10  9  1  0  0  0  0
 11 10  1  0  0  0  0
 12 11  1  0  0  0  0
 13 12  1  0  0  0  0
 14 13  1  0  0  0  0
 15 14  1  0  0  0  0
 11 15  1  0  0  0  0
 16 11  1  0  0  0  0
 17 16  1  0  0  0  0
 18 17  1  0  0  0  0
  9 18  1  0  0  0  0
 18  5  1  0  0  0  0
 18 19  1  0  0  0  0
 20  6  1  0  0  0  0
 20  2  1  0  0  0  0
 21 20  1  0  0  0  0
 22 21  1  0  0  0  0
 23 22  1  0  0  0  0
  2 23  1  0  0  0  0
 23 24  1  0  0  0  0
 24 25  1  0  0  0  0
 26 24  1  0  0  0  0
 27 26  1  0  0  0  0
 28 27  1  0  0  0  0
 29 28  1  0  0  0  0
 24 29  1  0  0  0  0
M  END
> <RowID>
395

> <Original_SMILES>
CC12CCC3C(=CC=C4CC5(CCC43C)OCCO5)C1CCC2C1(C)OCCO1

> <Canonical_QSARr>
CC12CCC3C(=CC=C4CC5(CCC43C)OCCO5)C1CCC2C1(C)OCCO1

> <InChI_Code_QSARr>
InChI=1S/C25H36O4/c1-22-10-11-25(28-14-15-29-25)16-17(22)4-5-18-19-6-7-21(24(3)26-12-13-27-24)23(19,2)9-8-20(18)22/h4-5,19-21H,6-16H2,1-3H3

> <InChI Key_QSARr>
CFZNXPSHLNMZGD-UHFFFAOYSA-N

> <Salt_Solvent>


> <Salt_Solvent_ID>
0

> <Number of connected components>
1

$$$$
Molecule_396
  Mrv2316 01072400032D          

 17 16  0  0  0  0            999 V2000
    6.7105    4.6993    0.0000 C   0  0  0  0  0  0  0  0  0  0  0  0
    7.4250    4.2868    0.0000 C   0  0  0  0  0  0  0  0  0  0  0  0
    7.4250    3.4618    0.0000 C   0  0  0  0  0  0  0  0  0  0  0  0
    8.1395    4.6993    0.0000 C   0  0  0  0  0  0  0  0  0  0  0  0
    8.1395    5.5243    0.0000 O   0  0  0  0  0  0  0  0  0  0  0  0
    8.8540    4.2868    0.0000 O   0  0  0  0  0  0  0  0  0  0  0  0
    9.5684    4.6993    0.0000 C   0  0  0  0  0  0  0  0  0  0  0  0
   10.2829    4.2868    0.0000 C   0  0  0  0  0  0  0  0  0  0  0  0
   10.9974    4.6993    0.0000 O   0  0  0  0  0  0  0  0  0  0  0  0
   11.7118    4.2868    0.0000 C   0  0  0  0  0  0  0  0  0  0  0  0
   12.4263    4.6993    0.0000 C   0  0  0  0  0  0  0  0  0  0  0  0
   13.1408    4.2868    0.0000 O   0  0  0  0  0  0  0  0  0  0  0  0
   13.8552    4.6993    0.0000 C   0  0  0  0  0  0  0  0  0  0  0  0
   14.5697    4.2868    0.0000 C   0  0  0  0  0  0  0  0  0  0  0  0
   15.2842    4.6993    0.0000 O   0  0  0  0  0  0  0  0  0  0  0  0
   15.9987    4.2868    0.0000 C   0  0  0  0  0  0  0  0  0  0  0  0
   16.7131    4.6993    0.0000 C   0  0  0  0  0  0  0  0  0  0  0  0
  1  2  1  0  0  0  0
  2  3  2  0  0  0  0
  2  4  1  0  0  0  0
  4  5  2  0  0  0  0
  4  6  1  0  0  0  0
  6  7  1  0  0  0  0
  7  8  1  0  0  0  0
  8  9  1  0  0  0  0
  9 10  1  0  0  0  0
 10 11  1  0  0  0  0
 11 12  1  0  0  0  0
 12 13  1  0  0  0  0
 13 14  1  0  0  0  0
 14 15  1  0  0  0  0
 15 16  1  0  0  0  0
 16 17  1  0  0  0  0
M  END
> <RowID>
396

> <Original_SMILES>
CC(=C)C(=O)OCCOCCOCCOCC

> <Canonical_QSARr>
CC(=C)C(=O)OCCOCCOCCOCC

> <InChI_Code_QSARr>
InChI=1S/C12H22O5/c1-4-14-5-6-15-7-8-16-9-10-17-12(13)11(2)3/h2,4-10H2,1,3H3

> <InChI Key_QSARr>
RBFPEAGEJJSYCX-UHFFFAOYSA-N

> <Salt_Solvent>


> <Salt_Solvent_ID>
0

> <Number of connected components>
1

$$$$
Molecule_397
  Mrv2316 01072400032D          

 12 12  0  0  0  0            999 V2000
    3.4221   -0.5710    0.0000 C   0  0  0  0  0  0  0  0  0  0  0  0
    2.6016   -0.6572    0.0000 C   0  0  0  0  0  0  0  0  0  0  0  0
    2.1166    0.0102    0.0000 C   0  0  0  0  0  0  0  0  0  0  0  0
    1.2962   -0.0760    0.0000 C   0  0  0  0  0  0  0  0  0  0  0  0
    0.8112    0.5914    0.0000 C   0  0  0  0  0  0  0  0  0  0  0  0
    1.0662    1.3761    0.0000 N   0  0  0  0  0  0  0  0  0  0  0  0
    0.3987    1.8610    0.0000 C   0  0  0  0  0  0  0  0  0  0  0  0
    0.3987    2.6860    0.0000 Cl  0  0  0  0  0  0  0  0  0  0  0  0
   -0.2687    1.3761    0.0000 C   0  0  0  0  0  0  0  0  0  0  0  0
   -1.0533    1.6310    0.0000 C   0  0  0  0  0  0  0  0  0  0  0  0
   -1.6664    1.0790    0.0000 O   0  0  0  0  0  0  0  0  0  0  0  0
   -0.0138    0.5914    0.0000 N   0  0  0  0  0  0  0  0  0  0  0  0
  1  2  1  0  0  0  0
  2  3  1  0  0  0  0
  3  4  1  0  0  0  0
  4  5  1  0  0  0  0
  6  5  1  0  0  0  0
  7  6  1  0  0  0  0
  7  8  1  0  0  0  0
  9  7  2  0  0  0  0
  9 10  1  0  0  0  0
 10 11  2  0  0  0  0
 12  9  1  0  0  0  0
  5 12  2  0  0  0  0
M  END
> <RowID>
397

> <Original_SMILES>
CCCCC1NC(Cl)=C(C=O)N=1

> <Canonical_QSARr>
CCCCC1NC(Cl)=C(C=O)N=1

> <InChI_Code_QSARr>
InChI=1S/C8H11ClN2O/c1-2-3-4-7-10-6(5-12)8(9)11-7/h5H,2-4H2,1H3,(H,10,11)

> <InChI Key_QSARr>
JLVIHQCWASNXCK-UHFFFAOYSA-N

> <Salt_Solvent>


> <Salt_Solvent_ID>
0

> <Number of connected components>
1

$$$$
Molecule_398
  Mrv2316 01072400032D          

 88 96  0  0  0  0            999 V2000
    8.7844   -4.2448    0.0000 O   0  0  0  0  0  0  0  0  0  0  0  0
    9.5494   -3.9359    0.0000 C   0  0  0  0  0  0  0  0  0  0  0  0
    9.6615   -3.0974    0.0000 C   0  0  0  0  0  0  0  0  0  0  0  0
    9.2761   -2.3339    0.0000 O   0  0  0  0  0  0  0  0  0  0  0  0
    9.1832   -1.4815    0.0000 C   0  0  0  0  0  0  0  0  0  0  0  0
    8.4171   -1.1328    0.0000 O   0  0  0  0  0  0  0  0  0  0  0  0
    8.3210   -0.3011    0.0000 C   0  0  0  0  0  0  0  0  0  0  0  0
    7.5616    0.0214    0.0000 C   0  0  0  0  0  0  0  0  0  0  0  0
    7.4612    0.8403    0.0000 O   0  0  0  0  0  0  0  0  0  0  0  0
    8.9931    0.2125    0.0000 C   0  0  0  0  0  0  0  0  0  0  0  0
    9.2604    1.0250    0.0000 O   0  0  0  0  0  0  0  0  0  0  0  0
    9.7976    1.6933    0.0000 C   0  0  0  0  0  0  0  0  0  0  0  0
    9.5024    2.4817    0.0000 O   0  0  0  0  0  0  0  0  0  0  0  0
   10.0225    3.1377    0.0000 C   0  0  0  0  0  0  0  0  0  0  0  0
    9.7136    3.9027    0.0000 C   0  0  0  0  0  0  0  0  0  0  0  0
   10.2216    4.5527    0.0000 O   0  0  0  0  0  0  0  0  0  0  0  0
   10.8609    3.0256    0.0000 C   0  0  0  0  0  0  0  0  0  0  0  0
   11.6245    3.4111    0.0000 O   0  0  0  0  0  0  0  0  0  0  0  0
   12.4769    3.5039    0.0000 C   0  0  0  0  0  0  0  0  0  0  0  0
   12.8256    4.2701    0.0000 O   0  0  0  0  0  0  0  0  0  0  0  0
   13.6572    4.3662    0.0000 C   0  0  0  0  0  0  0  0  0  0  0  0
   13.9797    5.1255    0.0000 C   0  0  0  0  0  0  0  0  0  0  0  0
   14.7986    5.2259    0.0000 O   0  0  0  0  0  0  0  0  0  0  0  0
   14.1708    3.6940    0.0000 C   0  0  0  0  0  0  0  0  0  0  0  0
   14.9833    3.4267    0.0000 O   0  0  0  0  0  0  0  0  0  0  0  0
   15.6517    2.8896    0.0000 C   0  0  0  0  0  0  0  0  0  0  0  0
   16.4400    3.1848    0.0000 O   0  0  0  0  0  0  0  0  0  0  0  0
   17.0960    2.6647    0.0000 C   0  0  0  0  0  0  0  0  0  0  0  0
   17.8610    2.9735    0.0000 C   0  0  0  0  0  0  0  0  0  0  0  0
   18.5110    2.4655    0.0000 O   0  0  0  0  0  0  0  0  0  0  0  0
   16.9839    1.8262    0.0000 C   0  0  0  0  0  0  0  0  0  0  0  0
   17.3694    1.0627    0.0000 O   0  0  0  0  0  0  0  0  0  0  0  0
   17.4622    0.2102    0.0000 C   0  0  0  0  0  0  0  0  0  0  0  0
   18.2284   -0.1385    0.0000 O   0  0  0  0  0  0  0  0  0  0  0  0
   18.3245   -0.9701    0.0000 C   0  0  0  0  0  0  0  0  0  0  0  0
   19.0838   -1.2926    0.0000 C   0  0  0  0  0  0  0  0  0  0  0  0
   19.7428   -0.7962    0.0000 O   0  0  0  0  0  0  0  0  0  0  0  0
   17.6524   -1.4837    0.0000 C   0  0  0  0  0  0  0  0  0  0  0  0
   17.3850   -2.2962    0.0000 O   0  0  0  0  0  0  0  0  0  0  0  0
   16.8479   -2.9646    0.0000 C   0  0  0  0  0  0  0  0  0  0  0  0
   17.1431   -3.7529    0.0000 O   0  0  0  0  0  0  0  0  0  0  0  0
   16.6230   -4.4089    0.0000 C   0  0  0  0  0  0  0  0  0  0  0  0
   16.9319   -5.1739    0.0000 C   0  0  0  0  0  0  0  0  0  0  0  0
   16.4238   -5.8239    0.0000 O   0  0  0  0  0  0  0  0  0  0  0  0
   15.7845   -4.2968    0.0000 C   0  0  0  0  0  0  0  0  0  0  0  0
   15.0210   -4.6823    0.0000 O   0  0  0  0  0  0  0  0  0  0  0  0
   14.1686   -4.7751    0.0000 C   0  0  0  0  0  0  0  0  0  0  0  0
   13.8199   -5.5413    0.0000 O   0  0  0  0  0  0  0  0  0  0  0  0
   12.9882   -5.6374    0.0000 C   0  0  0  0  0  0  0  0  0  0  0  0
   12.6657   -6.3967    0.0000 C   0  0  0  0  0  0  0  0  0  0  0  0
   11.8469   -6.4971    0.0000 O   0  0  0  0  0  0  0  0  0  0  0  0
   12.4746   -4.9652    0.0000 C   0  0  0  0  0  0  0  0  0  0  0  0
   11.6622   -4.6979    0.0000 O   0  0  0  0  0  0  0  0  0  0  0  0
   10.9938   -4.1608    0.0000 C   0  0  0  0  0  0  0  0  0  0  0  0
   11.0994   -3.3275    0.0000 O   0  0  0  0  0  0  0  0  0  0  0  0
   10.4504   -2.8125    0.0000 C   0  0  0  0  0  0  0  0  0  0  0  0
   10.5836   -1.9983    0.0000 C   0  0  0  0  0  0  0  0  0  0  0  0
   11.3553   -1.7065    0.0000 O   0  0  0  0  0  0  0  0  0  0  0  0
   10.2054   -4.4560    0.0000 C   0  0  0  0  0  0  0  0  0  0  0  0
   10.0772   -5.2710    0.0000 O   0  0  0  0  0  0  0  0  0  0  0  0
   12.8310   -4.2059    0.0000 C   0  0  0  0  0  0  0  0  0  0  0  0
   12.3494   -3.5360    0.0000 O   0  0  0  0  0  0  0  0  0  0  0  0
   13.6540   -4.1112    0.0000 C   0  0  0  0  0  0  0  0  0  0  0  0
   13.9741   -3.3508    0.0000 O   0  0  0  0  0  0  0  0  0  0  0  0
   15.4996   -3.5079    0.0000 C   0  0  0  0  0  0  0  0  0  0  0  0
   14.6854   -3.3747    0.0000 O   0  0  0  0  0  0  0  0  0  0  0  0
   16.0146   -2.8590    0.0000 C   0  0  0  0  0  0  0  0  0  0  0  0
   15.7033   -2.0950    0.0000 O   0  0  0  0  0  0  0  0  0  0  0  0
   16.8930   -1.1273    0.0000 C   0  0  0  0  0  0  0  0  0  0  0  0
   16.2232   -1.6089    0.0000 O   0  0  0  0  0  0  0  0  0  0  0  0
   16.7983   -0.3043    0.0000 C   0  0  0  0  0  0  0  0  0  0  0  0
   16.0379    0.0158    0.0000 O   0  0  0  0  0  0  0  0  0  0  0  0
   16.1950    1.5413    0.0000 C   0  0  0  0  0  0  0  0  0  0  0  0
   16.0619    0.7271    0.0000 O   0  0  0  0  0  0  0  0  0  0  0  0
   15.5461    2.0563    0.0000 C   0  0  0  0  0  0  0  0  0  0  0  0
   14.7821    1.7449    0.0000 O   0  0  0  0  0  0  0  0  0  0  0  0
   13.8144    2.9347    0.0000 C   0  0  0  0  0  0  0  0  0  0  0  0
   14.2960    2.2648    0.0000 O   0  0  0  0  0  0  0  0  0  0  0  0
   12.9914    2.8400    0.0000 C   0  0  0  0  0  0  0  0  0  0  0  0
   12.6714    2.0796    0.0000 O   0  0  0  0  0  0  0  0  0  0  0  0
   11.1458    2.2367    0.0000 C   0  0  0  0  0  0  0  0  0  0  0  0
   11.9600    2.1035    0.0000 O   0  0  0  0  0  0  0  0  0  0  0  0
   10.6308    1.5877    0.0000 C   0  0  0  0  0  0  0  0  0  0  0  0
   10.9422    0.8237    0.0000 O   0  0  0  0  0  0  0  0  0  0  0  0
    9.7524   -0.1439    0.0000 C   0  0  0  0  0  0  0  0  0  0  0  0
   10.4223    0.3377    0.0000 O   0  0  0  0  0  0  0  0  0  0  0  0
    9.8471   -0.9669    0.0000 C   0  0  0  0  0  0  0  0  0  0  0  0
   10.6075   -1.2870    0.0000 O   0  0  0  0  0  0  0  0  0  0  0  0
  1  2  1  0  0  0  0
  3  2  1  0  0  0  0
  3  4  1  0  0  0  0
  4  5  1  0  0  0  0
  6  5  1  0  0  0  0
  7  6  1  0  0  0  0
  7  8  1  0  0  0  0
  8  9  1  0  0  0  0
 10  7  1  0  0  0  0
 10 11  1  0  0  0  0
 11 12  1  0  0  0  0
 13 12  1  0  0  0  0
 14 13  1  0  0  0  0
 14 15  1  0  0  0  0
 15 16  1  0  0  0  0
 17 14  1  0  0  0  0
 17 18  1  0  0  0  0
 18 19  1  0  0  0  0
 20 19  1  0  0  0  0
 21 20  1  0  0  0  0
 21 22  1  0  0  0  0
 22 23  1  0  0  0  0
 24 21  1  0  0  0  0
 24 25  1  0  0  0  0
 25 26  1  0  0  0  0
 27 26  1  0  0  0  0
 28 27  1  0  0  0  0
 28 29  1  0  0  0  0
 29 30  1  0  0  0  0
 31 28  1  0  0  0  0
 31 32  1  0  0  0  0
 32 33  1  0  0  0  0
 34 33  1  0  0  0  0
 35 34  1  0  0  0  0
 35 36  1  0  0  0  0
 36 37  1  0  0  0  0
 38 35  1  0  0  0  0
 38 39  1  0  0  0  0
 39 40  1  0  0  0  0
 41 40  1  0  0  0  0
 42 41  1  0  0  0  0
 42 43  1  0  0  0  0
 43 44  1  0  0  0  0
 45 42  1  0  0  0  0
 45 46  1  0  0  0  0
 46 47  1  0  0  0  0
 48 47  1  0  0  0  0
 49 48  1  0  0  0  0
 49 50  1  0  0  0  0
 50 51  1  0  0  0  0
 52 49  1  0  0  0  0
 52 53  1  0  0  0  0
 53 54  1  0  0  0  0
 54 55  1  0  0  0  0
 55 56  1  0  0  0  0
 56  3  1  0  0  0  0
 56 57  1  0  0  0  0
 57 58  1  0  0  0  0
 59 54  1  0  0  0  0
  2 59  1  0  0  0  0
 59 60  1  0  0  0  0
 61 52  1  0  0  0  0
 61 62  1  0  0  0  0
 63 61  1  0  0  0  0
 47 63  1  0  0  0  0
 63 64  1  0  0  0  0
 65 45  1  0  0  0  0
 65 66  1  0  0  0  0
 67 65  1  0  0  0  0
 40 67  1  0  0  0  0
 67 68  1  0  0  0  0
 69 38  1  0  0  0  0
 69 70  1  0  0  0  0
 71 69  1  0  0  0  0
 33 71  1  0  0  0  0
 71 72  1  0  0  0  0
 73 31  1  0  0  0  0
 73 74  1  0  0  0  0
 75 73  1  0  0  0  0
 26 75  1  0  0  0  0
 75 76  1  0  0  0  0
 77 24  1  0  0  0  0
 77 78  1  0  0  0  0
 79 77  1  0  0  0  0
 19 79  1  0  0  0  0
 79 80  1  0  0  0  0
 81 17  1  0  0  0  0
 81 82  1  0  0  0  0
 83 81  1  0  0  0  0
 12 83  1  0  0  0  0
 83 84  1  0  0  0  0
 85 10  1  0  0  0  0
 85 86  1  0  0  0  0
 87 85  1  0  0  0  0
  5 87  1  0  0  0  0
 87 88  1  0  0  0  0
M  END
> <RowID>
398

> <Original_SMILES>
OC1C2OC3OC(CO)C(OC4OC(CO)C(OC5OC(CO)C(OC6OC(CO)C(OC7OC(CO)C(OC8OC(CO)C(OC9OC(CO)C(OC(OC2CO)C1O)C(O)C9O)C(O)C8O)C(O)C7O)C(O)C6O)C(O)C5O)C(O)C4O)C(O)C3O

> <Canonical_QSARr>
OC1C2OC3OC(CO)C(OC4OC(CO)C(OC5OC(CO)C(OC6OC(CO)C(OC7OC(CO)C(OC8OC(CO)C(OC9OC(CO)C(OC(OC2CO)C1O)C(O)C9O)C(O)C8O)C(O)C7O)C(O)C6O)C(O)C5O)C(O)C4O)C(O)C3O

> <InChI_Code_QSARr>
InChI=1S/C48H80O40/c49-1-9-33-17(57)25(65)41(73-9)82-34-10(2-50)75-43(27(67)19(34)59)84-36-12(4-52)77-45(29(69)21(36)61)86-38-14(6-54)79-47(31(71)23(38)63)88-40-16(8-56)80-48(32(72)24(40)64)87-39-15(7-55)78-46(30(70)22(39)62)85-37-13(5-53)76-44(28(68)20(37)60)83-35-11(3-51)74-42(81-33)26(66)18(35)58/h9-72H,1-8H2

> <InChI Key_QSARr>
GDSRMADSINPKSL-UHFFFAOYSA-N

> <Salt_Solvent>


> <Salt_Solvent_ID>
0

> <Number of connected components>
1

$$$$
Molecule_399
  Mrv2316 01072400032D          

 13 13  0  0  0  0            999 V2000
   -2.1434    1.3010    0.0000 C   0  0  0  0  0  0  0  0  0  0  0  0
   -1.4289    0.8885    0.0000 C   0  0  0  0  0  0  0  0  0  0  0  0
   -0.7145    1.3010    0.0000 O   0  0  0  0  0  0  0  0  0  0  0  0
   -0.0000    0.8885    0.0000 C   0  0  0  0  0  0  0  0  0  0  0  0
   -0.0000    0.0635    0.0000 C   0  0  0  0  0  0  0  0  0  0  0  0
    0.7145   -0.3490    0.0000 C   0  0  0  0  0  0  0  0  0  0  0  0
    1.4289    0.0635    0.0000 C   0  0  0  0  0  0  0  0  0  0  0  0
    1.4289    0.8885    0.0000 C   0  0  0  0  0  0  0  0  0  0  0  0
    0.7145    1.3010    0.0000 C   0  0  0  0  0  0  0  0  0  0  0  0
    0.7145    2.1260    0.0000 C   0  0  0  0  0  0  0  0  0  0  0  0
   -0.0000    2.5385    0.0000 N   0  0  0  0  0  0  0  0  0  0  0  0
    1.4289    2.5385    0.0000 N   0  0  0  0  0  0  0  0  0  0  0  0
    1.4289    3.3635    0.0000 O   0  0  0  0  0  0  0  0  0  0  0  0
  1  2  1  0  0  0  0
  2  3  1  0  0  0  0
  3  4  1  0  0  0  0
  5  4  2  0  0  0  0
  6  5  1  0  0  0  0
  7  6  2  0  0  0  0
  8  7  1  0  0  0  0
  9  8  2  0  0  0  0
  4  9  1  0  0  0  0
  9 10  1  0  0  0  0
 10 11  1  0  0  0  0
 10 12  2  0  0  0  0
 12 13  1  4  0  0  0
M  END
> <RowID>
399

> <Original_SMILES>
CCOC1=CC=CC=C1C(N)=NO

> <Canonical_QSARr>
CCOC1=CC=CC=C1C(N)=NO

> <InChI_Code_QSARr>
InChI=1S/C9H12N2O2/c1-2-13-8-6-4-3-5-7(8)9(10)11-12/h3-6,12H,2H2,1H3,(H2,10,11)

> <InChI Key_QSARr>
ZOGRANBHYCXFRO-UHFFFAOYSA-N

> <Salt_Solvent>


> <Salt_Solvent_ID>
0

> <Number of connected components>
1

$$$$
Molecule_400
  Mrv2316 01072400032D          

 17 16  0  0  0  0            999 V2000
    5.9961    4.2868    0.0000 C   0  0  0  0  0  0  0  0  0  0  0  0
    6.7105    4.6993    0.0000 C   0  0  0  0  0  0  0  0  0  0  0  0
    7.4250    4.2868    0.0000 C   0  0  0  0  0  0  0  0  0  0  0  0
    8.1395    4.6993    0.0000 C   0  0  0  0  0  0  0  0  0  0  0  0
    8.8540    4.2868    0.0000 C   0  0  0  0  0  0  0  0  0  0  0  0
    9.5684    4.6993    0.0000 C   0  0  0  0  0  0  0  0  0  0  0  0
   10.2829    4.2868    0.0000 C   0  0  0  0  0  0  0  0  0  0  0  0
   10.9974    4.6993    0.0000 C   0  0  0  0  0  0  0  0  0  0  0  0
   11.7118    4.2868    0.0000 C   0  0  0  0  0  0  0  0  0  0  0  0
   12.4263    4.6993    0.0000 C   0  0  0  0  0  0  0  0  0  0  0  0
   13.1408    4.2868    0.0000 C   0  0  0  0  0  0  0  0  0  0  0  0
   13.8552    4.6993    0.0000 C   0  0  0  0  0  0  0  0  0  0  0  0
   14.5697    4.2868    0.0000 O   0  0  0  0  0  0  0  0  0  0  0  0
   15.2842    4.6993    0.0000 C   0  0  0  0  0  0  0  0  0  0  0  0
   15.2842    5.5243    0.0000 O   0  0  0  0  0  0  0  0  0  0  0  0
   15.9987    4.2868    0.0000 C   0  0  0  0  0  0  0  0  0  0  0  0
   16.7131    4.6993    0.0000 C   0  0  0  0  0  0  0  0  0  0  0  0
  1  2  1  0  0  0  0
  2  3  1  0  0  0  0
  3  4  1  0  0  0  0
  4  5  1  0  0  0  0
  5  6  1  0  0  0  0
  6  7  1  0  0  0  0
  7  8  1  0  0  0  0
  8  9  1  0  0  0  0
  9 10  1  0  0  0  0
 10 11  1  0  0  0  0
 11 12  1  0  0  0  0
 12 13  1  0  0  0  0
 13 14  1  0  0  0  0
 14 15  2  0  0  0  0
 14 16  1  0  0  0  0
 16 17  2  0  0  0  0
M  END
> <RowID>
400

> <Original_SMILES>
CCCCCCCCCCCCOC(=O)C=C

> <Canonical_QSARr>
CCCCCCCCCCCCOC(=O)C=C

> <InChI_Code_QSARr>
InChI=1S/C15H28O2/c1-3-5-6-7-8-9-10-11-12-13-14-17-15(16)4-2/h4H,2-3,5-14H2,1H3

> <InChI Key_QSARr>
PBOSTUDLECTMNL-UHFFFAOYSA-N

> <Salt_Solvent>


> <Salt_Solvent_ID>
0

> <Number of connected components>
1

$$$$
Molecule_401
  Mrv2316 01072400032D          

 14 15  0  0  0  0            999 V2000
    4.7812    0.7568    0.0000 C   0  0  0  0  0  0  0  0  0  0  0  0
    4.0667    0.3443    0.0000 O   0  0  0  0  0  0  0  0  0  0  0  0
    3.3523    0.7568    0.0000 C   0  0  0  0  0  0  0  0  0  0  0  0
    3.3523    1.5818    0.0000 C   0  0  0  0  0  0  0  0  0  0  0  0
    2.6378    1.9943    0.0000 C   0  0  0  0  0  0  0  0  0  0  0  0
    2.6378    2.8193    0.0000 O   0  0  0  0  0  0  0  0  0  0  0  0
    1.9233    3.2318    0.0000 C   0  0  0  0  0  0  0  0  0  0  0  0
    1.9233    1.5818    0.0000 N   0  0  0  0  0  0  0  0  0  0  0  0
    1.1387    1.8368    0.0000 N   0  0  0  0  0  0  0  0  0  0  0  0
    0.6538    1.1693    0.0000 C   0  0  0  0  0  0  0  0  0  0  0  0
   -0.1712    1.1693    0.0000 N   0  0  0  0  0  0  0  0  0  0  0  0
    1.1387    0.5019    0.0000 N   0  0  0  0  0  0  0  0  0  0  0  0
    1.9233    0.7568    0.0000 C   0  0  0  0  0  0  0  0  0  0  0  0
    2.6378    0.3443    0.0000 N   0  0  0  0  0  0  0  0  0  0  0  0
  1  2  1  0  0  0  0
  2  3  1  0  0  0  0
  4  3  1  0  0  0  0
  5  4  2  0  0  0  0
  5  6  1  0  0  0  0
  6  7  1  0  0  0  0
  8  5  1  0  0  0  0
  8  9  1  0  0  0  0
  9 10  2  0  0  0  0
 10 11  1  0  0  0  0
 10 12  1  0  0  0  0
 12 13  2  0  0  0  0
 13  8  1  0  0  0  0
 14 13  1  0  0  0  0
  3 14  2  0  0  0  0
M  END
> <RowID>
401

> <Original_SMILES>
COC1C=C(OC)N2N=C(N)N=C2N=1

> <Canonical_QSARr>
COC1C=C(OC)N2N=C(N)N=C2N=1

> <InChI_Code_QSARr>
InChI=1S/C7H9N5O2/c1-13-4-3-5(14-2)12-7(9-4)10-6(8)11-12/h3H,1-2H3,(H2,8,11)

> <InChI Key_QSARr>
SJEIPAUSEWIHJI-UHFFFAOYSA-N

> <Salt_Solvent>


> <Salt_Solvent_ID>
0

> <Number of connected components>
1

$$$$
Molecule_402
  Mrv2316 01072400032D          

 11 11  0  0  0  0            999 V2000
    0.1299   -1.5000    0.0000 C   0  0  0  0  0  0  0  0  0  0  0  0
    0.8444   -1.0875    0.0000 O   0  0  0  0  0  0  0  0  0  0  0  0
    0.8444   -0.2625    0.0000 C   0  0  0  0  0  0  0  0  0  0  0  0
    1.5588    0.1500    0.0000 C   0  0  0  0  0  0  0  0  0  0  0  0
    1.5588    0.9750    0.0000 C   0  0  0  0  0  0  0  0  0  0  0  0
    0.8444    1.3875    0.0000 C   0  0  0  0  0  0  0  0  0  0  0  0
    0.8444    2.2125    0.0000 O   0  0  0  0  0  0  0  0  0  0  0  0
    0.1299    2.6250    0.0000 C   0  0  0  0  0  0  0  0  0  0  0  0
    0.1299    0.9750    0.0000 C   0  0  0  0  0  0  0  0  0  0  0  0
    0.1299    0.1500    0.0000 C   0  0  0  0  0  0  0  0  0  0  0  0
   -0.5846   -0.2625    0.0000 N   0  0  0  0  0  0  0  0  0  0  0  0
  1  2  1  0  0  0  0
  2  3  1  0  0  0  0
  4  3  1  0  0  0  0
  5  4  2  0  0  0  0
  6  5  1  0  0  0  0
  6  7  1  0  0  0  0
  7  8  1  0  0  0  0
  9  6  2  0  0  0  0
 10  9  1  0  0  0  0
  3 10  2  0  0  0  0
 10 11  1  0  0  0  0
M  END
> <RowID>
402

> <Original_SMILES>
COC1C=CC(=CC=1N)OC

> <Canonical_QSARr>
COC1C=CC(=CC=1N)OC

> <InChI_Code_QSARr>
InChI=1S/C8H11NO2/c1-10-6-3-4-8(11-2)7(9)5-6/h3-5H,9H2,1-2H3

> <InChI Key_QSARr>
NAZDVUBIEPVUKE-UHFFFAOYSA-N

> <Salt_Solvent>


> <Salt_Solvent_ID>
0

> <Number of connected components>
1

$$$$
Molecule_403
  Mrv2316 01072400032D          

 20 19  0  0  0  0            999 V2000
    9.1855    6.1283    0.0000 C   0  0  0  0  0  0  0  0  0  0  0  0
    9.9000    5.7158    0.0000 C   0  0  0  0  0  0  0  0  0  0  0  0
   10.6145    6.1283    0.0000 C   0  0  0  0  0  0  0  0  0  0  0  0
   11.3289    5.7158    0.0000 C   0  0  0  0  0  0  0  0  0  0  0  0
   12.0434    6.1283    0.0000 C   0  0  0  0  0  0  0  0  0  0  0  0
   12.7579    5.7158    0.0000 C   0  0  0  0  0  0  0  0  0  0  0  0
   13.4723    6.1283    0.0000 C   0  0  0  0  0  0  0  0  0  0  0  0
   13.4723    6.9533    0.0000 O   0  0  0  0  0  0  0  0  0  0  0  0
   14.1868    5.7158    0.0000 C   0  0  0  0  0  0  0  0  0  0  0  0
   14.9013    6.1283    0.0000 C   0  0  0  0  0  0  0  0  0  0  0  0
   15.6158    5.7158    0.0000 C   0  0  0  0  0  0  0  0  0  0  0  0
   16.3302    6.1283    0.0000 C   0  0  0  0  0  0  0  0  0  0  0  0
   17.0447    5.7158    0.0000 C   0  0  0  0  0  0  0  0  0  0  0  0
   17.7592    6.1283    0.0000 C   0  0  0  0  0  0  0  0  0  0  0  0
   18.4736    5.7158    0.0000 C   0  0  0  0  0  0  0  0  0  0  0  0
   19.1881    6.1283    0.0000 C   0  0  0  0  0  0  0  0  0  0  0  0
   19.9026    5.7158    0.0000 C   0  0  0  0  0  0  0  0  0  0  0  0
   20.6171    6.1283    0.0000 C   0  0  0  0  0  0  0  0  0  0  0  0
   21.3315    5.7158    0.0000 C   0  0  0  0  0  0  0  0  0  0  0  0
   22.0460    6.1283    0.0000 O   0  0  0  0  0  0  0  0  0  0  0  0
  1  2  1  0  0  0  0
  2  3  1  0  0  0  0
  3  4  1  0  0  0  0
  4  5  1  0  0  0  0
  5  6  1  0  0  0  0
  6  7  1  0  0  0  0
  7  8  1  0  0  0  0
  7  9  1  0  0  0  0
  9 10  1  0  0  0  0
 10 11  1  0  0  0  0
 11 12  1  0  0  0  0
 12 13  1  0  0  0  0
 13 14  1  0  0  0  0
 14 15  1  0  0  0  0
 15 16  1  0  0  0  0
 16 17  1  0  0  0  0
 17 18  1  0  0  0  0
 18 19  1  0  0  0  0
 19 20  1  0  0  0  0
M  END
> <RowID>
403

> <Original_SMILES>
CCCCCCC(O)CCCCCCCCCCCO

> <Canonical_QSARr>
CCCCCCC(O)CCCCCCCCCCCO

> <InChI_Code_QSARr>
InChI=1S/C18H38O2/c1-2-3-4-12-15-18(20)16-13-10-8-6-5-7-9-11-14-17-19/h18-20H,2-17H2,1H3

> <InChI Key_QSARr>
KHLCTMQBMINUNT-UHFFFAOYSA-N

> <Salt_Solvent>


> <Salt_Solvent_ID>
0

> <Number of connected components>
1

$$$$
Molecule_404
  Mrv2316 01072400032D          

 12 12  0  0  0  0            999 V2000
   -0.0000   -3.3000    0.0000 C   0  0  0  0  0  0  0  0  0  0  0  0
    0.7145   -2.8875    0.0000 C   0  0  0  0  0  0  0  0  0  0  0  0
    1.4289   -3.3000    0.0000 C   0  0  0  0  0  0  0  0  0  0  0  0
    1.4289   -4.1250    0.0000 O   0  0  0  0  0  0  0  0  0  0  0  0
    2.1434   -2.8875    0.0000 O   0  0  0  0  0  0  0  0  0  0  0  0
    2.8579   -3.3000    0.0000 C   0  0  0  0  0  0  0  0  0  0  0  0
    3.5724   -2.8875    0.0000 C   0  0  0  0  0  0  0  0  0  0  0  0
    4.2868   -3.3000    0.0000 C   0  0  0  0  0  0  0  0  0  0  0  0
    5.0013   -2.8875    0.0000 C   0  0  0  0  0  0  0  0  0  0  0  0
    5.0013   -2.0625    0.0000 C   0  0  0  0  0  0  0  0  0  0  0  0
    4.2868   -1.6500    0.0000 C   0  0  0  0  0  0  0  0  0  0  0  0
    3.5724   -2.0625    0.0000 C   0  0  0  0  0  0  0  0  0  0  0  0
  1  2  1  0  0  0  0
  2  3  1  0  0  0  0
  3  4  2  0  0  0  0
  3  5  1  0  0  0  0
  5  6  1  0  0  0  0
  6  7  1  0  0  0  0
  8  7  1  0  0  0  0
  9  8  2  0  0  0  0
 10  9  1  0  0  0  0
 11 10  2  0  0  0  0
 12 11  1  0  0  0  0
  7 12  2  0  0  0  0
M  END
> <RowID>
404

> <Original_SMILES>
CCC(=O)OCC1C=CC=CC=1

> <Canonical_QSARr>
CCC(=O)OCC1C=CC=CC=1

> <InChI_Code_QSARr>
InChI=1S/C10H12O2/c1-2-10(11)12-8-9-6-4-3-5-7-9/h3-7H,2,8H2,1H3

> <InChI Key_QSARr>
VHOMAPWVLKRQAZ-UHFFFAOYSA-N

> <Salt_Solvent>


> <Salt_Solvent_ID>
0

> <Number of connected components>
1

$$$$
Molecule_405
  Mrv2316 01072400032D          

 27 29  0  0  0  0            999 V2000
    3.0696   -4.4917    0.0000 C   0  0  0  0  0  0  0  0  0  0  0  0
    2.3551   -4.0792    0.0000 C   0  0  0  0  0  0  0  0  0  0  0  0
    2.3551   -3.2542    0.0000 C   0  0  0  0  0  0  0  0  0  0  0  0
    1.6406   -2.8417    0.0000 C   0  0  0  0  0  0  0  0  0  0  0  0
    1.6406   -2.0167    0.0000 O   0  0  0  0  0  0  0  0  0  0  0  0
    0.9262   -1.6042    0.0000 C   0  0  0  0  0  0  0  0  0  0  0  0
    0.2117   -2.0167    0.0000 O   0  0  0  0  0  0  0  0  0  0  0  0
    0.9262   -0.7792    0.0000 C   0  0  0  0  0  0  0  0  0  0  0  0
    1.6406   -0.3667    0.0000 C   0  0  0  0  0  0  0  0  0  0  0  0
    1.6406    0.4583    0.0000 C   0  0  0  0  0  0  0  0  0  0  0  0
    0.9262    0.8708    0.0000 C   0  0  0  0  0  0  0  0  0  0  0  0
    0.9262    1.6958    0.0000 O   0  0  0  0  0  0  0  0  0  0  0  0
    0.2117    0.4583    0.0000 C   0  0  0  0  0  0  0  0  0  0  0  0
    0.2117   -0.3667    0.0000 C   0  0  0  0  0  0  0  0  0  0  0  0
    0.9262   -3.2542    0.0000 C   0  0  0  0  0  0  0  0  0  0  0  0
    0.9262   -4.0792    0.0000 C   0  0  0  0  0  0  0  0  0  0  0  0
    1.6406   -4.4917    0.0000 C   0  0  0  0  0  0  0  0  0  0  0  0
    1.6406   -5.3167    0.0000 O   0  0  0  0  0  0  0  0  0  0  0  0
    0.9262   -5.7292    0.0000 C   0  0  0  0  0  0  0  0  0  0  0  0
    0.2117   -5.3167    0.0000 O   0  0  0  0  0  0  0  0  0  0  0  0
    0.9262   -6.5542    0.0000 C   0  0  0  0  0  0  0  0  0  0  0  0
    0.2117   -6.9667    0.0000 C   0  0  0  0  0  0  0  0  0  0  0  0
    0.2117   -7.7917    0.0000 C   0  0  0  0  0  0  0  0  0  0  0  0
    0.9262   -8.2042    0.0000 C   0  0  0  0  0  0  0  0  0  0  0  0
    0.9262   -9.0292    0.0000 O   0  0  0  0  0  0  0  0  0  0  0  0
    1.6406   -7.7917    0.0000 C   0  0  0  0  0  0  0  0  0  0  0  0
    1.6406   -6.9667    0.0000 C   0  0  0  0  0  0  0  0  0  0  0  0
  1  2  1  0  0  0  0
  3  2  1  0  0  0  0
  4  3  2  0  0  0  0
  4  5  1  0  0  0  0
  5  6  1  0  0  0  0
  6  7  2  0  0  0  0
  6  8  1  0  0  0  0
  9  8  1  0  0  0  0
 10  9  2  0  0  0  0
 11 10  1  0  0  0  0
 11 12  1  0  0  0  0
 13 11  2  0  0  0  0
 14 13  1  0  0  0  0
  8 14  2  0  0  0  0
 15  4  1  0  0  0  0
 16 15  2  0  0  0  0
 17 16  1  0  0  0  0
  2 17  2  0  0  0  0
 17 18  1  0  0  0  0
 18 19  1  0  0  0  0
 19 20  2  0  0  0  0
 19 21  1  0  0  0  0
 22 21  1  0  0  0  0
 23 22  2  0  0  0  0
 24 23  1  0  0  0  0
 24 25  1  0  0  0  0
 26 24  2  0  0  0  0
 27 26  1  0  0  0  0
 21 27  2  0  0  0  0
M  END
> <RowID>
405

> <Original_SMILES>
CC1C=C(C=CC=1OC(=O)C1C=CC(O)=CC=1)OC(=O)C1C=CC(O)=CC=1

> <Canonical_QSARr>
CC1C=C(C=CC=1OC(=O)C1C=CC(O)=CC=1)OC(=O)C1C=CC(O)=CC=1

> <InChI_Code_QSARr>
InChI=1S/C21H16O6/c1-13-12-18(26-20(24)14-2-6-16(22)7-3-14)10-11-19(13)27-21(25)15-4-8-17(23)9-5-15/h2-12,22-23H,1H3

> <InChI Key_QSARr>
GXRSWJXJKSUYHZ-UHFFFAOYSA-N

> <Salt_Solvent>


> <Salt_Solvent_ID>
0

> <Number of connected components>
1

$$$$
Molecule_406
  Mrv2316 01072400032D          

 19 18  0  0  0  0            999 V2000
    9.1855    6.1283    0.0000 C   0  0  0  0  0  0  0  0  0  0  0  0
    9.9000    5.7158    0.0000 C   0  0  0  0  0  0  0  0  0  0  0  0
   10.6145    6.1283    0.0000 C   0  0  0  0  0  0  0  0  0  0  0  0
   11.3289    5.7158    0.0000 C   0  0  0  0  0  0  0  0  0  0  0  0
   12.0434    6.1283    0.0000 C   0  0  0  0  0  0  0  0  0  0  0  0
   12.7579    5.7158    0.0000 C   0  0  0  0  0  0  0  0  0  0  0  0
   13.4724    6.1283    0.0000 C   0  0  0  0  0  0  0  0  0  0  0  0
   14.1868    5.7158    0.0000 C   0  0  0  0  0  0  0  0  0  0  0  0
   14.9013    6.1283    0.0000 C   0  0  0  0  0  0  0  0  0  0  0  0
   15.6158    5.7158    0.0000 C   0  0  0  0  0  0  0  0  0  0  0  0
   16.3302    6.1283    0.0000 C   0  0  0  0  0  0  0  0  0  0  0  0
   17.0447    5.7158    0.0000 C   0  0  0  0  0  0  0  0  0  0  0  0
   17.7592    6.1283    0.0000 C   0  0  0  0  0  0  0  0  0  0  0  0
   18.4736    5.7158    0.0000 C   0  0  0  0  0  0  0  0  0  0  0  0
   19.1881    6.1283    0.0000 C   0  0  0  0  0  0  0  0  0  0  0  0
   19.9026    5.7158    0.0000 C   0  0  0  0  0  0  0  0  0  0  0  0
   20.6171    6.1283    0.0000 C   0  0  0  0  0  0  0  0  0  0  0  0
   21.3315    5.7158    0.0000 C   0  0  0  0  0  0  0  0  0  0  0  0
   22.0460    6.1283    0.0000 Cl  0  0  0  0  0  0  0  0  0  0  0  0
  1  2  1  0  0  0  0
  2  3  1  0  0  0  0
  3  4  1  0  0  0  0
  4  5  1  0  0  0  0
  5  6  1  0  0  0  0
  6  7  1  0  0  0  0
  7  8  1  0  0  0  0
  8  9  1  0  0  0  0
  9 10  1  0  0  0  0
 10 11  1  0  0  0  0
 11 12  1  0  0  0  0
 12 13  1  0  0  0  0
 13 14  1  0  0  0  0
 14 15  1  0  0  0  0
 15 16  1  0  0  0  0
 16 17  1  0  0  0  0
 17 18  1  0  0  0  0
 18 19  1  0  0  0  0
M  END
> <RowID>
406

> <Original_SMILES>
CCCCCCCCCCCCCCCCCCCl

> <Canonical_QSARr>
CCCCCCCCCCCCCCCCCCCl

> <InChI_Code_QSARr>
InChI=1S/C18H37Cl/c1-2-3-4-5-6-7-8-9-10-11-12-13-14-15-16-17-18-19/h2-18H2,1H3

> <InChI Key_QSARr>
VUQPJRPDRDVQMN-UHFFFAOYSA-N

> <Salt_Solvent>


> <Salt_Solvent_ID>
0

> <Number of connected components>
1

$$$$
Molecule_407
  Mrv2316 01072400032D          

 14 14  0  0  0  0            999 V2000
    0.0000   -3.8893    0.0000 C   0  0  0  0  0  0  0  0  0  0  0  0
    0.7145   -3.4768    0.0000 C   0  0  0  0  0  0  0  0  0  0  0  0
    0.7145   -2.6518    0.0000 O   0  0  0  0  0  0  0  0  0  0  0  0
    1.4289   -3.8893    0.0000 C   0  0  0  0  0  0  0  0  0  0  0  0
    2.1434   -3.4768    0.0000 C   0  0  0  0  0  0  0  0  0  0  0  0
    2.1434   -2.6518    0.0000 O   0  0  0  0  0  0  0  0  0  0  0  0
    2.8579   -3.8893    0.0000 N   0  0  0  0  0  0  0  0  0  0  0  0
    3.5724   -3.4768    0.0000 C   0  0  0  0  0  0  0  0  0  0  0  0
    4.2868   -3.8893    0.0000 C   0  0  0  0  0  0  0  0  0  0  0  0
    5.0013   -3.4768    0.0000 C   0  0  0  0  0  0  0  0  0  0  0  0
    5.0013   -2.6518    0.0000 C   0  0  0  0  0  0  0  0  0  0  0  0
    4.2868   -2.2393    0.0000 C   0  0  0  0  0  0  0  0  0  0  0  0
    3.5724   -2.6518    0.0000 C   0  0  0  0  0  0  0  0  0  0  0  0
    2.8579   -2.2393    0.0000 Cl  0  0  0  0  0  0  0  0  0  0  0  0
  1  2  1  0  0  0  0
  2  3  2  0  0  0  0
  2  4  1  0  0  0  0
  4  5  1  0  0  0  0
  5  6  2  0  0  0  0
  5  7  1  0  0  0  0
  7  8  1  0  0  0  0
  9  8  1  0  0  0  0
 10  9  2  0  0  0  0
 11 10  1  0  0  0  0
 12 11  2  0  0  0  0
 13 12  1  0  0  0  0
  8 13  2  0  0  0  0
 13 14  1  0  0  0  0
M  END
> <RowID>
407

> <Original_SMILES>
CC(=O)CC(=O)NC1C=CC=CC=1Cl

> <Canonical_QSARr>
CC(=O)CC(=O)NC1C=CC=CC=1Cl

> <InChI_Code_QSARr>
InChI=1S/C10H10ClNO2/c1-7(13)6-10(14)12-9-5-3-2-4-8(9)11/h2-5H,6H2,1H3,(H,12,14)

> <InChI Key_QSARr>
BFVHBHKMLIBQNN-UHFFFAOYSA-N

> <Salt_Solvent>


> <Salt_Solvent_ID>
0

> <Number of connected components>
1

$$$$
Molecule_408
  Mrv2316 01072400032D          

 43 42  0  0  0  0            999 V2000
    8.5737  -24.2487    0.0000 C   0  0  0  0  0  0  0  0  0  0  0  0
    8.5737  -23.4237    0.0000 C   0  0  0  0  0  0  0  0  0  0  0  0
    9.2881  -23.0112    0.0000 C   0  0  0  0  0  0  0  0  0  0  0  0
    7.8592  -23.0112    0.0000 C   0  0  0  0  0  0  0  0  0  0  0  0
    7.8592  -22.1862    0.0000 C   0  0  0  0  0  0  0  0  0  0  0  0
    7.1447  -21.7737    0.0000 C   0  0  0  0  0  0  0  0  0  0  0  0
    7.1447  -20.9487    0.0000 C   0  0  0  0  0  0  0  0  0  0  0  0
    6.4302  -20.5362    0.0000 C   0  0  0  0  0  0  0  0  0  0  0  0
    6.4302  -19.7112    0.0000 C   0  0  0  0  0  0  0  0  0  0  0  0
    5.7158  -19.2987    0.0000 C   0  0  0  0  0  0  0  0  0  0  0  0
    5.7158  -18.4737    0.0000 C   0  0  0  0  0  0  0  0  0  0  0  0
    5.0013  -18.0612    0.0000 C   0  0  0  0  0  0  0  0  0  0  0  0
    5.0013  -17.2362    0.0000 C   0  0  0  0  0  0  0  0  0  0  0  0
    4.2868  -16.8237    0.0000 O   0  0  0  0  0  0  0  0  0  0  0  0
    4.2868  -15.9987    0.0000 P   0  0  0  0  0  0  0  0  0  0  0  0
    3.5724  -15.5862    0.0000 O   0  0  0  0  0  0  0  0  0  0  0  0
    3.5724  -14.7612    0.0000 C   0  0  0  0  0  0  0  0  0  0  0  0
    2.8579  -14.3487    0.0000 C   0  0  0  0  0  0  0  0  0  0  0  0
    2.8579  -13.5237    0.0000 C   0  0  0  0  0  0  0  0  0  0  0  0
    2.1434  -13.1112    0.0000 C   0  0  0  0  0  0  0  0  0  0  0  0
    2.1434  -12.2862    0.0000 C   0  0  0  0  0  0  0  0  0  0  0  0
    1.4289  -11.8737    0.0000 C   0  0  0  0  0  0  0  0  0  0  0  0
    1.4289  -11.0487    0.0000 C   0  0  0  0  0  0  0  0  0  0  0  0
    0.7145  -10.6362    0.0000 C   0  0  0  0  0  0  0  0  0  0  0  0
    0.7145   -9.8112    0.0000 C   0  0  0  0  0  0  0  0  0  0  0  0
    0.0000   -9.3987    0.0000 C   0  0  0  0  0  0  0  0  0  0  0  0
    0.0000   -8.5737    0.0000 C   0  0  0  0  0  0  0  0  0  0  0  0
   -0.7145   -8.1612    0.0000 C   0  0  0  0  0  0  0  0  0  0  0  0
    0.7145   -8.1612    0.0000 C   0  0  0  0  0  0  0  0  0  0  0  0
    5.0013  -15.5862    0.0000 O   0  0  0  0  0  0  0  0  0  0  0  0
    5.0013  -14.7612    0.0000 C   0  0  0  0  0  0  0  0  0  0  0  0
    5.7158  -14.3487    0.0000 C   0  0  0  0  0  0  0  0  0  0  0  0
    5.7158  -13.5237    0.0000 C   0  0  0  0  0  0  0  0  0  0  0  0
    6.4302  -13.1112    0.0000 C   0  0  0  0  0  0  0  0  0  0  0  0
    6.4302  -12.2862    0.0000 C   0  0  0  0  0  0  0  0  0  0  0  0
    7.1447  -11.8737    0.0000 C   0  0  0  0  0  0  0  0  0  0  0  0
    7.1447  -11.0487    0.0000 C   0  0  0  0  0  0  0  0  0  0  0  0
    7.8592  -10.6362    0.0000 C   0  0  0  0  0  0  0  0  0  0  0  0
    7.8592   -9.8112    0.0000 C   0  0  0  0  0  0  0  0  0  0  0  0
    8.5737   -9.3987    0.0000 C   0  0  0  0  0  0  0  0  0  0  0  0
    8.5737   -8.5737    0.0000 C   0  0  0  0  0  0  0  0  0  0  0  0
    7.8592   -8.1612    0.0000 C   0  0  0  0  0  0  0  0  0  0  0  0
    9.2881   -8.1612    0.0000 C   0  0  0  0  0  0  0  0  0  0  0  0
  1  2  1  0  0  0  0
  2  3  1  0  0  0  0
  2  4  1  0  0  0  0
  4  5  1  0  0  0  0
  5  6  1  0  0  0  0
  6  7  1  0  0  0  0
  7  8  1  0  0  0  0
  8  9  1  0  0  0  0
  9 10  1  0  0  0  0
 10 11  1  0  0  0  0
 11 12  1  0  0  0  0
 12 13  1  0  0  0  0
 13 14  1  0  0  0  0
 14 15  1  0  0  0  0
 15 16  1  0  0  0  0
 16 17  1  0  0  0  0
 17 18  1  0  0  0  0
 18 19  1  0  0  0  0
 19 20  1  0  0  0  0
 20 21  1  0  0  0  0
 21 22  1  0  0  0  0
 22 23  1  0  0  0  0
 23 24  1  0  0  0  0
 24 25  1  0  0  0  0
 25 26  1  0  0  0  0
 26 27  1  0  0  0  0
 27 28  1  0  0  0  0
 27 29  1  0  0  0  0
 15 30  1  0  0  0  0
 30 31  1  0  0  0  0
 31 32  1  0  0  0  0
 32 33  1  0  0  0  0
 33 34  1  0  0  0  0
 34 35  1  0  0  0  0
 35 36  1  0  0  0  0
 36 37  1  0  0  0  0
 37 38  1  0  0  0  0
 38 39  1  0  0  0  0
 39 40  1  0  0  0  0
 40 41  1  0  0  0  0
 41 42  1  0  0  0  0
 41 43  1  0  0  0  0
M  END
> <RowID>
408

> <Original_SMILES>
CC(C)CCCCCCCCCCOP(OCCCCCCCCCCC(C)C)OCCCCCCCCCCC(C)C

> <Canonical_QSARr>
CC(C)CCCCCCCCCCOP(OCCCCCCCCCCC(C)C)OCCCCCCCCCCC(C)C

> <InChI_Code_QSARr>
InChI=1S/C39H81O3P/c1-37(2)31-25-19-13-7-10-16-22-28-34-40-43(41-35-29-23-17-11-8-14-20-26-32-38(3)4)42-36-30-24-18-12-9-15-21-27-33-39(5)6/h37-39H,7-36H2,1-6H3

> <InChI Key_QSARr>
IVINYWARLXOTLP-UHFFFAOYSA-N

> <Salt_Solvent>


> <Salt_Solvent_ID>
0

> <Number of connected components>
1

$$$$
Molecule_409
  Mrv2316 01072400032D          

 14 13  0  0  0  0            999 V2000
    2.9684    1.8414    0.0000 C   0  0  0  0  0  0  0  0  0  0  0  0
    2.2539    1.4289    0.0000 C   0  0  0  0  0  0  0  0  0  0  0  0
    2.2539    0.6039    0.0000 C   0  0  0  0  0  0  0  0  0  0  0  0
    1.5395    1.8414    0.0000 C   0  0  0  0  0  0  0  0  0  0  0  0
    0.8250    1.4289    0.0000 Si  0  0  0  0  0  0  0  0  0  0  0  0
    0.1105    1.0164    0.0000 O   0  0  0  0  0  0  0  0  0  0  0  0
   -0.6039    1.4289    0.0000 C   0  0  0  0  0  0  0  0  0  0  0  0
   -1.3184    1.0164    0.0000 C   0  0  0  0  0  0  0  0  0  0  0  0
    0.4125    2.1434    0.0000 O   0  0  0  0  0  0  0  0  0  0  0  0
   -0.4125    2.1434    0.0000 C   0  0  0  0  0  0  0  0  0  0  0  0
   -0.8250    2.8579    0.0000 C   0  0  0  0  0  0  0  0  0  0  0  0
    1.2375    0.7144    0.0000 O   0  0  0  0  0  0  0  0  0  0  0  0
    0.8250   -0.0000    0.0000 C   0  0  0  0  0  0  0  0  0  0  0  0
   -0.0000   -0.0000    0.0000 C   0  0  0  0  0  0  0  0  0  0  0  0
  1  2  1  0  0  0  0
  2  3  1  0  0  0  0
  2  4  1  0  0  0  0
  4  5  1  0  0  0  0
  5  6  1  0  0  0  0
  6  7  1  0  0  0  0
  7  8  1  0  0  0  0
  5  9  1  0  0  0  0
  9 10  1  0  0  0  0
 10 11  1  0  0  0  0
  5 12  1  0  0  0  0
 12 13  1  0  0  0  0
 13 14  1  0  0  0  0
M  END
> <RowID>
409

> <Original_SMILES>
CC(C)C[Si](OCC)(OCC)OCC

> <Canonical_QSARr>
CC(C)C[Si](OCC)(OCC)OCC

> <InChI_Code_QSARr>
InChI=1S/C10H24O3Si/c1-6-11-14(12-7-2,13-8-3)9-10(4)5/h10H,6-9H2,1-5H3

> <InChI Key_QSARr>
ALVYUZIFSCKIFP-UHFFFAOYSA-N

> <Salt_Solvent>


> <Salt_Solvent_ID>
0

> <Number of connected components>
1

$$$$
Molecule_410
  Mrv2316 01072400032D          

 80 80  0  0  0  0            999 V2000
   -0.6740    3.6368    0.0000 C   0  0  0  0  0  0  0  0  0  0  0  0
   -0.6740    2.8118    0.0000 C   0  0  0  0  0  0  0  0  0  0  0  0
    0.0405    2.3993    0.0000 C   0  0  0  0  0  0  0  0  0  0  0  0
    0.0405    1.5743    0.0000 C   0  0  0  0  0  0  0  0  0  0  0  0
    0.7549    1.1618    0.0000 C   0  0  0  0  0  0  0  0  0  0  0  0
    0.7549    0.3368    0.0000 C   0  0  0  0  0  0  0  0  0  0  0  0
    1.4694   -0.0757    0.0000 C   0  0  0  0  0  0  0  0  0  0  0  0
    1.4694   -0.9007    0.0000 C   0  0  0  0  0  0  0  0  0  0  0  0
    2.1839   -1.3132    0.0000 C   0  0  0  0  0  0  0  0  0  0  0  0
    2.8983   -0.9007    0.0000 C   0  0  0  0  0  0  0  0  0  0  0  0
    2.8983   -0.0757    0.0000 C   0  0  0  0  0  0  0  0  0  0  0  0
    2.1839    0.3368    0.0000 C   0  0  0  0  0  0  0  0  0  0  0  0
    2.1839    1.1618    0.0000 C   0  0  0  0  0  0  0  0  0  0  0  0
    1.4694    1.5743    0.0000 C   0  0  0  0  0  0  0  0  0  0  0  0
    1.4694    2.3993    0.0000 C   0  0  0  0  0  0  0  0  0  0  0  0
    2.1839   -2.1382    0.0000 C   0  0  0  0  0  0  0  0  0  0  0  0
    1.4694   -2.5507    0.0000 O   0  0  0  0  0  0  0  0  0  0  0  0
    2.8983   -2.5507    0.0000 O   0  0  0  0  0  0  0  0  0  0  0  0
    2.8983   -3.3757    0.0000 C   0  0  0  0  0  0  0  0  0  0  0  0
    3.6128   -3.7882    0.0000 C   0  0  0  0  0  0  0  0  0  0  0  0
    4.3273   -3.3757    0.0000 O   0  0  0  0  0  0  0  0  0  0  0  0
    4.3273   -2.5507    0.0000 C   0  0  0  0  0  0  0  0  0  0  0  0
    3.6128   -2.1382    0.0000 O   0  0  0  0  0  0  0  0  0  0  0  0
    5.0418   -2.1382    0.0000 C   0  0  0  0  0  0  0  0  0  0  0  0
    5.7562   -2.5507    0.0000 C   0  0  0  0  0  0  0  0  0  0  0  0
    6.4707   -2.1382    0.0000 C   0  0  0  0  0  0  0  0  0  0  0  0
    6.4707   -1.3132    0.0000 C   0  0  0  0  0  0  0  0  0  0  0  0
    7.1852   -0.9007    0.0000 C   0  0  0  0  0  0  0  0  0  0  0  0
    7.1852   -0.0757    0.0000 C   0  0  0  0  0  0  0  0  0  0  0  0
    7.8996    0.3368    0.0000 C   0  0  0  0  0  0  0  0  0  0  0  0
    5.0418   -1.3132    0.0000 C   0  0  0  0  0  0  0  0  0  0  0  0
    5.7562   -0.9007    0.0000 C   0  0  0  0  0  0  0  0  0  0  0  0
    5.7562   -0.0757    0.0000 C   0  0  0  0  0  0  0  0  0  0  0  0
    6.4707    0.3368    0.0000 C   0  0  0  0  0  0  0  0  0  0  0  0
    6.4707    1.1618    0.0000 C   0  0  0  0  0  0  0  0  0  0  0  0
    7.1852    1.5743    0.0000 C   0  0  0  0  0  0  0  0  0  0  0  0
    7.1852    2.3993    0.0000 C   0  0  0  0  0  0  0  0  0  0  0  0
    7.8996    2.8118    0.0000 C   0  0  0  0  0  0  0  0  0  0  0  0
    3.6128   -4.6132    0.0000 C   0  0  0  0  0  0  0  0  0  0  0  0
    2.9454   -5.0981    0.0000 O   0  0  0  0  0  0  0  0  0  0  0  0
    3.2003   -5.8827    0.0000 C   0  0  0  0  0  0  0  0  0  0  0  0
    2.7154   -6.5502    0.0000 O   0  0  0  0  0  0  0  0  0  0  0  0
    4.0253   -5.8827    0.0000 C   0  0  0  0  0  0  0  0  0  0  0  0
    4.5102   -6.5502    0.0000 O   0  0  0  0  0  0  0  0  0  0  0  0
    4.1747   -7.3038    0.0000 C   0  0  0  0  0  0  0  0  0  0  0  0
    3.3542   -7.3901    0.0000 O   0  0  0  0  0  0  0  0  0  0  0  0
    4.6596   -7.9713    0.0000 C   0  0  0  0  0  0  0  0  0  0  0  0
    4.3240   -8.7250    0.0000 C   0  0  0  0  0  0  0  0  0  0  0  0
    4.8090   -9.3924    0.0000 C   0  0  0  0  0  0  0  0  0  0  0  0
    4.4734  -10.1461    0.0000 C   0  0  0  0  0  0  0  0  0  0  0  0
    4.9583  -10.8135    0.0000 C   0  0  0  0  0  0  0  0  0  0  0  0
    4.6228  -11.5672    0.0000 C   0  0  0  0  0  0  0  0  0  0  0  0
    5.1077  -12.2346    0.0000 C   0  0  0  0  0  0  0  0  0  0  0  0
    4.7721  -12.9883    0.0000 C   0  0  0  0  0  0  0  0  0  0  0  0
    5.2571  -13.6557    0.0000 C   0  0  0  0  0  0  0  0  0  0  0  0
    5.4801   -7.8850    0.0000 C   0  0  0  0  0  0  0  0  0  0  0  0
    5.9650   -8.5525    0.0000 C   0  0  0  0  0  0  0  0  0  0  0  0
    6.7855   -8.4662    0.0000 C   0  0  0  0  0  0  0  0  0  0  0  0
    7.2704   -9.1337    0.0000 C   0  0  0  0  0  0  0  0  0  0  0  0
    8.0909   -9.0475    0.0000 C   0  0  0  0  0  0  0  0  0  0  0  0
    8.5758   -9.7149    0.0000 C   0  0  0  0  0  0  0  0  0  0  0  0
    4.2803   -5.0981    0.0000 C   0  0  0  0  0  0  0  0  0  0  0  0
    5.0649   -4.8432    0.0000 O   0  0  0  0  0  0  0  0  0  0  0  0
    5.6780   -5.3952    0.0000 C   0  0  0  0  0  0  0  0  0  0  0  0
    5.5064   -6.2022    0.0000 O   0  0  0  0  0  0  0  0  0  0  0  0
    6.4626   -5.1403    0.0000 C   0  0  0  0  0  0  0  0  0  0  0  0
    7.0757   -5.6923    0.0000 C   0  0  0  0  0  0  0  0  0  0  0  0
    7.8603   -5.4374    0.0000 C   0  0  0  0  0  0  0  0  0  0  0  0
    8.4734   -5.9894    0.0000 C   0  0  0  0  0  0  0  0  0  0  0  0
    9.2580   -5.7344    0.0000 C   0  0  0  0  0  0  0  0  0  0  0  0
    9.8711   -6.2865    0.0000 C   0  0  0  0  0  0  0  0  0  0  0  0
   10.6557   -6.0315    0.0000 C   0  0  0  0  0  0  0  0  0  0  0  0
    6.6341   -4.3333    0.0000 C   0  0  0  0  0  0  0  0  0  0  0  0
    7.4187   -4.0783    0.0000 C   0  0  0  0  0  0  0  0  0  0  0  0
    7.5903   -3.2714    0.0000 C   0  0  0  0  0  0  0  0  0  0  0  0
    8.3749   -3.0164    0.0000 C   0  0  0  0  0  0  0  0  0  0  0  0
    8.5464   -2.2095    0.0000 C   0  0  0  0  0  0  0  0  0  0  0  0
    9.3310   -1.9545    0.0000 C   0  0  0  0  0  0  0  0  0  0  0  0
    9.5026   -1.1476    0.0000 C   0  0  0  0  0  0  0  0  0  0  0  0
   10.2872   -0.8926    0.0000 C   0  0  0  0  0  0  0  0  0  0  0  0
  1  2  1  0  0  0  0
  2  3  1  0  0  0  0
  3  4  1  0  0  0  0
  4  5  1  0  0  0  0
  5  6  1  0  0  0  0
  6  7  1  0  0  0  0
  7  8  1  0  0  0  0
  8  9  1  0  0  0  0
  9 10  1  0  0  0  0
 10 11  1  0  0  0  0
 11 12  1  0  0  0  0
 12 13  1  0  0  0  0
 13 14  1  0  0  0  0
 14 15  1  0  0  0  0
  9 16  1  0  0  0  0
 16 17  2  0  0  0  0
 16 18  1  0  0  0  0
 18 19  1  0  0  0  0
 19 20  1  0  0  0  0
 20 21  1  0  0  0  0
 21 22  1  0  0  0  0
 22 23  2  0  0  0  0
 22 24  1  0  0  0  0
 24 25  1  0  0  0  0
 25 26  1  0  0  0  0
 26 27  1  0  0  0  0
 27 28  1  0  0  0  0
 28 29  1  0  0  0  0
 29 30  1  0  0  0  0
 24 31  1  0  0  0  0
 31 32  1  0  0  0  0
 32 33  1  0  0  0  0
 33 34  1  0  0  0  0
 34 35  1  0  0  0  0
 35 36  1  0  0  0  0
 36 37  1  0  0  0  0
 37 38  1  0  0  0  0
 20 39  1  0  0  0  0
 40 39  1  0  0  0  0
 41 40  1  0  0  0  0
 41 42  2  0  0  0  0
 43 41  1  0  0  0  0
 43 44  1  0  0  0  0
 44 45  1  0  0  0  0
 45 46  2  0  0  0  0
 45 47  1  0  0  0  0
 47 48  1  0  0  0  0
 48 49  1  0  0  0  0
 49 50  1  0  0  0  0
 50 51  1  0  0  0  0
 51 52  1  0  0  0  0
 52 53  1  0  0  0  0
 53 54  1  0  0  0  0
 54 55  1  0  0  0  0
 47 56  1  0  0  0  0
 56 57  1  0  0  0  0
 57 58  1  0  0  0  0
 58 59  1  0  0  0  0
 59 60  1  0  0  0  0
 60 61  1  0  0  0  0
 62 43  2  0  0  0  0
 39 62  1  0  0  0  0
 62 63  1  0  0  0  0
 63 64  1  0  0  0  0
 64 65  2  0  0  0  0
 64 66  1  0  0  0  0
 66 67  1  0  0  0  0
 67 68  1  0  0  0  0
 68 69  1  0  0  0  0
 69 70  1  0  0  0  0
 70 71  1  0  0  0  0
 71 72  1  0  0  0  0
 66 73  1  0  0  0  0
 73 74  1  0  0  0  0
 74 75  1  0  0  0  0
 75 76  1  0  0  0  0
 76 77  1  0  0  0  0
 77 78  1  0  0  0  0
 78 79  1  0  0  0  0
 79 80  1  0  0  0  0
M  END
> <RowID>
410

> <Original_SMILES>
CCCCCCCCC(CCCCCC)C(=O)OCC(OC(=O)C(CCCCCC)CCCCCCCC)C1OC(=O)C(OC(=O)C(CCCCCCCC)CCCCCC)=C1OC(=O)C(CCCCCC)CCCCCCCC

> <Canonical_QSARr>
CCCCCCCCC(CCCCCC)C(=O)OCC(OC(=O)C(CCCCCC)CCCCCCCC)C1OC(=O)C(OC(=O)C(CCCCCCCC)CCCCCC)=C1OC(=O)C(CCCCCC)CCCCCCCC

> <InChI_Code_QSARr>
InChI=1S/C70H128O10/c1-9-17-25-33-37-45-50-58(49-41-29-21-13-5)66(71)76-57-62(77-67(72)59(51-42-30-22-14-6)54-46-38-34-26-18-10-2)63-64(79-68(73)60(52-43-31-23-15-7)55-47-39-35-27-19-11-3)65(70(75)78-63)80-69(74)61(53-44-32-24-16-8)56-48-40-36-28-20-12-4/h58-63H,9-57H2,1-8H3

> <InChI Key_QSARr>
OEWBEINAQKIQLZ-UHFFFAOYSA-N

> <Salt_Solvent>


> <Salt_Solvent_ID>
0

> <Number of connected components>
1

$$$$
Molecule_412
  Mrv2316 01072400032D          

 18 17  0  0  0  0            999 V2000
    1.6500   -1.4289    0.0000 F   0  0  0  0  0  0  0  0  0  0  0  0
    1.2375   -0.7145    0.0000 C   0  0  0  0  0  0  0  0  0  0  0  0
    1.9520   -0.3020    0.0000 F   0  0  0  0  0  0  0  0  0  0  0  0
    0.5230   -1.1270    0.0000 F   0  0  0  0  0  0  0  0  0  0  0  0
    0.8250   -0.0000    0.0000 C   0  0  0  0  0  0  0  0  0  0  0  0
    1.2375    0.7145    0.0000 F   0  0  0  0  0  0  0  0  0  0  0  0
    0.0000   -0.0000    0.0000 C   0  0  0  0  0  0  0  0  0  0  0  0
   -0.4125   -0.7145    0.0000 F   0  0  0  0  0  0  0  0  0  0  0  0
   -0.4125    0.7145    0.0000 C   0  0  0  0  0  0  0  0  0  0  0  0
    0.3020    1.1270    0.0000 F   0  0  0  0  0  0  0  0  0  0  0  0
   -0.8250    1.4289    0.0000 C   0  0  0  0  0  0  0  0  0  0  0  0
   -1.2375    2.1434    0.0000 F   0  0  0  0  0  0  0  0  0  0  0  0
   -0.1105    1.8414    0.0000 F   0  0  0  0  0  0  0  0  0  0  0  0
   -1.5395    1.0164    0.0000 F   0  0  0  0  0  0  0  0  0  0  0  0
   -1.1270    0.3020    0.0000 C   0  0  0  0  0  0  0  0  0  0  0  0
   -1.8414   -0.1105    0.0000 F   0  0  0  0  0  0  0  0  0  0  0  0
   -1.8806    0.6375    0.0000 F   0  0  0  0  0  0  0  0  0  0  0  0
   -0.7145   -0.4125    0.0000 F   0  0  0  0  0  0  0  0  0  0  0  0
  1  2  1  0  0  0  0
  2  3  1  0  0  0  0
  2  4  1  0  0  0  0
  2  5  1  0  0  0  0
  5  6  1  4  0  0  0
  5  7  2  0  0  0  0
  7  8  1  0  0  0  0
  7  9  1  0  0  0  0
  9 10  1  0  0  0  0
  9 11  1  0  0  0  0
 11 12  1  0  0  0  0
 11 13  1  0  0  0  0
 11 14  1  0  0  0  0
  9 15  1  0  0  0  0
 15 16  1  0  0  0  0
 15 17  1  0  0  0  0
 15 18  1  0  0  0  0
M  END
> <RowID>
412

> <Original_SMILES>
FC(F)(F)C(F)=C(F)C(F)(C(F)(F)F)C(F)(F)F

> <Canonical_QSARr>
FC(F)(F)C(F)=C(F)C(F)(C(F)(F)F)C(F)(F)F

> <InChI_Code_QSARr>
InChI=1S/C6F12/c7-1(2(8)4(10,11)12)3(9,5(13,14)15)6(16,17)18

> <InChI Key_QSARr>
SAPOZTRFWJZUFT-UHFFFAOYSA-N

> <Salt_Solvent>


> <Salt_Solvent_ID>
0

> <Number of connected components>
1

$$$$
Molecule_413
  Mrv2316 01072400032D          

 10  9  0  0  0  0            999 V2000
    1.5395   -1.2375    0.0000 O   0  0  0  0  0  0  0  0  0  0  0  0
    0.8250   -0.8250    0.0000 C   0  0  0  0  0  0  0  0  0  0  0  0
    0.1105   -1.2375    0.0000 C   0  0  0  0  0  0  0  0  0  0  0  0
   -0.6039   -1.6500    0.0000 Cl  0  0  0  0  0  0  0  0  0  0  0  0
    0.5230   -1.9520    0.0000 Cl  0  0  0  0  0  0  0  0  0  0  0  0
   -0.3020   -0.5230    0.0000 Cl  0  0  0  0  0  0  0  0  0  0  0  0
    0.8250   -0.0000    0.0000 C   0  0  0  0  0  0  0  0  0  0  0  0
    0.8250    0.8250    0.0000 Cl  0  0  0  0  0  0  0  0  0  0  0  0
    1.6500   -0.0000    0.0000 Cl  0  0  0  0  0  0  0  0  0  0  0  0
   -0.0000   -0.0000    0.0000 Cl  0  0  0  0  0  0  0  0  0  0  0  0
  1  2  2  0  0  0  0
  2  3  1  0  0  0  0
  3  4  1  0  0  0  0
  3  5  1  0  0  0  0
  3  6  1  0  0  0  0
  2  7  1  0  0  0  0
  7  8  1  0  0  0  0
  7  9  1  0  0  0  0
  7 10  1  0  0  0  0
M  END
> <RowID>
413

> <Original_SMILES>
O=C(C(Cl)(Cl)Cl)C(Cl)(Cl)Cl

> <Canonical_QSARr>
O=C(C(Cl)(Cl)Cl)C(Cl)(Cl)Cl

> <InChI_Code_QSARr>
InChI=1S/C3Cl6O/c4-2(5,6)1(10)3(7,8)9

> <InChI Key_QSARr>
DOJXGHGHTWFZHK-UHFFFAOYSA-N

> <Salt_Solvent>


> <Salt_Solvent_ID>
0

> <Number of connected components>
1

$$$$
Molecule_414
  Mrv2316 01072400032D          

 16 17  0  0  0  0            999 V2000
   -3.6281    1.3045    0.0000 O   0  0  0  0  0  0  0  0  0  0  0  0
   -2.9137    0.8920    0.0000 C   0  0  0  0  0  0  0  0  0  0  0  0
   -2.9137    0.0670    0.0000 C   0  0  0  0  0  0  0  0  0  0  0  0
   -3.6281   -0.3455    0.0000 C   0  0  0  0  0  0  0  0  0  0  0  0
   -3.6281   -1.1705    0.0000 C   0  0  0  0  0  0  0  0  0  0  0  0
   -2.9137   -1.5830    0.0000 C   0  0  0  0  0  0  0  0  0  0  0  0
   -2.1992   -1.1705    0.0000 C   0  0  0  0  0  0  0  0  0  0  0  0
   -2.1992   -0.3455    0.0000 C   0  0  0  0  0  0  0  0  0  0  0  0
   -2.1992    1.3045    0.0000 C   0  0  0  0  0  0  0  0  0  0  0  0
   -2.7295    1.9365    0.0000 F   0  0  0  0  0  0  0  0  0  0  0  0
   -1.9170    0.5293    0.0000 C   0  0  0  0  0  0  0  0  0  0  0  0
   -1.1046    0.3860    0.0000 C   0  0  0  0  0  0  0  0  0  0  0  0
   -0.5743    1.0180    0.0000 C   0  0  0  0  0  0  0  0  0  0  0  0
    0.2382    0.8747    0.0000 F   0  0  0  0  0  0  0  0  0  0  0  0
   -0.8564    1.7932    0.0000 C   0  0  0  0  0  0  0  0  0  0  0  0
   -1.6689    1.9365    0.0000 C   0  0  0  0  0  0  0  0  0  0  0  0
  1  2  2  0  0  0  0
  2  3  1  0  0  0  0
  4  3  1  0  0  0  0
  5  4  2  0  0  0  0
  6  5  1  0  0  0  0
  7  6  2  0  0  0  0
  8  7  1  0  0  0  0
  3  8  2  0  0  0  0
  2  9  1  0  0  0  0
  9 10  1  0  0  0  0
 11  9  1  0  0  0  0
 12 11  1  0  0  0  0
 13 12  2  0  0  0  0
 13 14  1  0  0  0  0
 15 13  1  0  0  0  0
 16 15  2  0  0  0  0
  9 16  1  0  0  0  0
M  END
> <RowID>
414

> <Original_SMILES>
O=C(C1C=CC=CC=1)C1(F)CC=C(F)C=C1

> <Canonical_QSARr>
O=C(C1C=CC=CC=1)C1(F)CC=C(F)C=C1

> <InChI_Code_QSARr>
InChI=1S/C13H10F2O/c14-11-6-8-13(15,9-7-11)12(16)10-4-2-1-3-5-10/h1-8H,9H2

> <InChI Key_QSARr>
FDQJEGGUPFESSJ-UHFFFAOYSA-N

> <Salt_Solvent>


> <Salt_Solvent_ID>
0

> <Number of connected components>
1

$$$$
Molecule_415
  Mrv2316 01072400032D          

 76 81  0  0  0  0            999 V2000
    0.7720   -4.9806    0.0000 O   0  0  0  0  0  0  0  0  0  0  0  0
    1.1845   -4.2661    0.0000 S   0  0  0  0  0  0  0  0  0  0  0  0
    0.4701   -3.8536    0.0000 O   0  0  0  0  0  0  0  0  0  0  0  0
    1.5970   -3.5516    0.0000 O   0  0  0  0  0  0  0  0  0  0  0  0
    1.8990   -4.6786    0.0000 C   0  0  0  0  0  0  0  0  0  0  0  0
    2.6135   -4.2661    0.0000 C   0  0  0  0  0  0  0  0  0  0  0  0
    2.6135   -3.4411    0.0000 C   0  0  0  0  0  0  0  0  0  0  0  0
    1.8990   -3.0286    0.0000 C   0  0  0  0  0  0  0  0  0  0  0  0
    1.8990   -2.2036    0.0000 C   0  0  0  0  0  0  0  0  0  0  0  0
    2.6135   -1.7911    0.0000 C   0  0  0  0  0  0  0  0  0  0  0  0
    3.3279   -2.2036    0.0000 S   0  0  0  0  0  0  0  0  0  0  0  0
    4.0424   -2.6161    0.0000 O   0  0  0  0  0  0  0  0  0  0  0  0
    3.7404   -1.4891    0.0000 O   0  0  0  0  0  0  0  0  0  0  0  0
    2.9154   -2.9181    0.0000 O   0  0  0  0  0  0  0  0  0  0  0  0
    2.6135   -0.9661    0.0000 C   0  0  0  0  0  0  0  0  0  0  0  0
    1.8990   -0.5536    0.0000 C   0  0  0  0  0  0  0  0  0  0  0  0
    1.8990    0.2714    0.0000 N   0  0  0  0  0  0  0  0  0  0  0  0
    1.1845    0.6839    0.0000 C   0  0  0  0  0  0  0  0  0  0  0  0
    1.1845    1.5089    0.0000 N   0  0  0  0  0  0  0  0  0  0  0  0
    0.4701    1.9214    0.0000 C   0  0  0  0  0  0  0  0  0  0  0  0
    0.4701    2.7464    0.0000 N   0  0  0  0  0  0  0  0  0  0  0  0
    1.1845    3.1589    0.0000 C   0  0  0  0  0  0  0  0  0  0  0  0
    1.8990    2.7464    0.0000 C   0  0  0  0  0  0  0  0  0  0  0  0
    2.6135    3.1589    0.0000 O   0  0  0  0  0  0  0  0  0  0  0  0
    1.8990    1.9214    0.0000 C   0  0  0  0  0  0  0  0  0  0  0  0
   -0.2444    3.1589    0.0000 C   0  0  0  0  0  0  0  0  0  0  0  0
   -0.9589    2.7464    0.0000 C   0  0  0  0  0  0  0  0  0  0  0  0
   -0.9589    1.9214    0.0000 O   0  0  0  0  0  0  0  0  0  0  0  0
   -1.6733    3.1589    0.0000 C   0  0  0  0  0  0  0  0  0  0  0  0
   -0.2444    1.5089    0.0000 N   0  0  0  0  0  0  0  0  0  0  0  0
   -0.2444    0.6839    0.0000 C   0  0  0  0  0  0  0  0  0  0  0  0
   -0.9589    0.2714    0.0000 N   0  0  0  0  0  0  0  0  0  0  0  0
   -1.6733    0.6839    0.0000 C   0  0  0  0  0  0  0  0  0  0  0  0
   -1.6733    1.5089    0.0000 C   0  0  0  0  0  0  0  0  0  0  0  0
   -2.3878    1.9214    0.0000 C   0  0  0  0  0  0  0  0  0  0  0  0
   -3.1023    1.5089    0.0000 C   0  0  0  0  0  0  0  0  0  0  0  0
   -3.8168    1.9214    0.0000 S   0  0  0  0  0  0  0  0  0  0  0  0
   -4.5312    2.3339    0.0000 O   0  0  0  0  0  0  0  0  0  0  0  0
   -4.2293    1.2069    0.0000 O   0  0  0  0  0  0  0  0  0  0  0  0
   -3.4043    2.6359    0.0000 O   0  0  0  0  0  0  0  0  0  0  0  0
   -3.1023    0.6839    0.0000 C   0  0  0  0  0  0  0  0  0  0  0  0
   -2.3878    0.2714    0.0000 C   0  0  0  0  0  0  0  0  0  0  0  0
    0.4701    0.2714    0.0000 N   0  0  0  0  0  0  0  0  0  0  0  0
    1.1845   -0.9661    0.0000 C   0  0  0  0  0  0  0  0  0  0  0  0
    1.1845   -1.7911    0.0000 C   0  0  0  0  0  0  0  0  0  0  0  0
    3.3279   -4.6786    0.0000 C   0  0  0  0  0  0  0  0  0  0  0  0
    3.3279   -5.5036    0.0000 C   0  0  0  0  0  0  0  0  0  0  0  0
    2.6135   -5.9161    0.0000 C   0  0  0  0  0  0  0  0  0  0  0  0
    2.6135   -6.7411    0.0000 N   0  0  0  0  0  0  0  0  0  0  0  0
    3.3279   -7.1536    0.0000 C   0  0  0  0  0  0  0  0  0  0  0  0
    3.3279   -7.9786    0.0000 N   0  0  0  0  0  0  0  0  0  0  0  0
    4.0424   -8.3911    0.0000 C   0  0  0  0  0  0  0  0  0  0  0  0
    4.0424   -9.2161    0.0000 N   0  0  0  0  0  0  0  0  0  0  0  0
    4.7569   -9.6286    0.0000 C   0  0  0  0  0  0  0  0  0  0  0  0
    4.7569  -10.4536    0.0000 C   0  0  0  0  0  0  0  0  0  0  0  0
    5.4714  -10.8661    0.0000 C   0  0  0  0  0  0  0  0  0  0  0  0
    6.1858  -10.4536    0.0000 C   0  0  0  0  0  0  0  0  0  0  0  0
    6.9003  -10.8661    0.0000 S   0  0  0  0  0  0  0  0  0  0  0  0
    7.6148  -11.2786    0.0000 O   0  0  0  0  0  0  0  0  0  0  0  0
    6.4878  -11.5806    0.0000 O   0  0  0  0  0  0  0  0  0  0  0  0
    7.3128  -10.1516    0.0000 O   0  0  0  0  0  0  0  0  0  0  0  0
    6.1858   -9.6286    0.0000 C   0  0  0  0  0  0  0  0  0  0  0  0
    5.4714   -9.2161    0.0000 C   0  0  0  0  0  0  0  0  0  0  0  0
    4.7569   -7.9786    0.0000 N   0  0  0  0  0  0  0  0  0  0  0  0
    4.7569   -7.1536    0.0000 C   0  0  0  0  0  0  0  0  0  0  0  0
    5.4714   -6.7411    0.0000 N   0  0  0  0  0  0  0  0  0  0  0  0
    6.1858   -7.1536    0.0000 C   0  0  0  0  0  0  0  0  0  0  0  0
    6.1858   -7.9786    0.0000 C   0  0  0  0  0  0  0  0  0  0  0  0
    6.9003   -8.3911    0.0000 C   0  0  0  0  0  0  0  0  0  0  0  0
    5.4714   -8.3911    0.0000 O   0  0  0  0  0  0  0  0  0  0  0  0
    5.4714   -5.9161    0.0000 C   0  0  0  0  0  0  0  0  0  0  0  0
    4.7569   -5.5036    0.0000 C   0  0  0  0  0  0  0  0  0  0  0  0
    4.0424   -5.9161    0.0000 O   0  0  0  0  0  0  0  0  0  0  0  0
    4.7569   -4.6786    0.0000 C   0  0  0  0  0  0  0  0  0  0  0  0
    4.0424   -6.7411    0.0000 N   0  0  0  0  0  0  0  0  0  0  0  0
    1.8990   -5.5036    0.0000 C   0  0  0  0  0  0  0  0  0  0  0  0
  1  2  1  0  0  0  0
  2  3  2  0  0  0  0
  2  4  2  0  0  0  0
  2  5  1  0  0  0  0
  6  5  1  0  0  0  0
  7  6  1  4  0  0  0
  7  8  2  0  0  0  0
  8  9  1  0  0  0  0
 10  9  2  0  0  0  0
 10 11  1  0  0  0  0
 11 12  1  0  0  0  0
 11 13  2  0  0  0  0
 11 14  2  0  0  0  0
 15 10  1  0  0  0  0
 16 15  2  0  0  0  0
 16 17  1  0  0  0  0
 17 18  1  0  0  0  0
 19 18  2  0  0  0  0
 20 19  1  0  0  0  0
 20 21  1  0  0  0  0
 21 22  1  0  0  0  0
 22 23  1  0  0  0  0
 23 24  1  0  0  0  0
 23 25  1  0  0  0  0
 21 26  1  0  0  0  0
 26 27  1  0  0  0  0
 27 28  1  0  0  0  0
 27 29  1  0  0  0  0
 30 20  2  0  0  0  0
 31 30  1  0  0  0  0
 31 32  1  0  0  0  0
 32 33  1  0  0  0  0
 34 33  2  0  0  0  0
 35 34  1  0  0  0  0
 36 35  2  0  0  0  0
 36 37  1  0  0  0  0
 37 38  1  0  0  0  0
 37 39  2  0  0  0  0
 37 40  2  0  0  0  0
 41 36  1  0  0  0  0
 42 41  2  0  0  0  0
 33 42  1  0  0  0  0
 43 31  2  0  0  0  0
 18 43  1  0  0  0  0
 44 16  1  0  0  0  0
 45 44  2  0  0  0  0
  9 45  1  0  0  0  0
 46  6  2  0  0  0  0
 47 46  1  0  0  0  0
 48 47  2  0  0  0  0
 48 49  1  0  0  0  0
 49 50  1  0  0  0  0
 51 50  1  0  0  0  0
 52 51  2  0  0  0  0
 52 53  1  0  0  0  0
 53 54  1  0  0  0  0
 55 54  2  0  0  0  0
 56 55  1  0  0  0  0
 57 56  2  0  0  0  0
 57 58  1  0  0  0  0
 58 59  1  0  0  0  0
 58 60  2  0  0  0  0
 58 61  2  0  0  0  0
 62 57  1  0  0  0  0
 63 62  2  0  0  0  0
 54 63  1  0  0  0  0
 64 52  1  0  0  0  0
 65 64  2  0  0  0  0
 65 66  1  0  0  0  0
 66 67  1  0  0  0  0
 67 68  1  0  0  0  0
 68 69  1  0  0  0  0
 68 70  1  0  0  0  0
 66 71  1  0  0  0  0
 71 72  1  0  0  0  0
 72 73  1  0  0  0  0
 72 74  1  0  0  0  0
 75 65  1  0  0  0  0
 50 75  2  0  0  0  0
 76 48  1  0  0  0  0
  5 76  2  0  0  0  0
M  END
> <RowID>
415

> <Original_SMILES>
[Na+].[Na+].[Na+].[Na+].CC(O)CN(CC(C)O)C1=NC(NC2=CC(=C(C=CC3C=CC(=CC=3S([O-])(=O)=O)NC3N=C(NC4C=CC(=CC=4)S([O-])(=O)=O)N=C(N=3)N(CC(C)O)CC(C)O)C=C2)S([O-])(=O)=O)=NC(NC2C=CC(=CC=2)S([O-])(=O)=O)=N1

> <Canonical_QSARr>
CC(O)CN(CC(C)O)C1N=C(NC2C=C(C(C=CC3C=CC(=CC=3S(O)(=O)=O)NC3=NC(=NC(NC4C=CC(=CC=4)S(O)(=O)=O)=N3)N(CC(C)O)CC(C)O)=CC=2)S(O)(=O)=O)N=C(NC2C=CC(=CC=2)S(O)(=O)=O)N=1

> <InChI_Code_QSARr>
InChI=1S/C44H52N12O16S4/c1-25(57)21-55(22-26(2)58)43-51-39(45-31-11-15-35(16-12-31)73(61,62)63)49-41(53-43)47-33-9-7-29(37(19-33)75(67,68)69)5-6-30-8-10-34(20-38(30)76(70,71)72)48-42-50-40(46-32-13-17-36(18-14-32)74(64,65)66)52-44(54-42)56(23-27(3)59)24-28(4)60/h5-20,25-28,57-60H,21-24H2,1-4H3,(H,61,62,63)(H,64,65,66)(H,67,68,69)(H,70,71,72)(H2,45,47,49,51,53)(H2,46,48,50,52,54)

> <InChI Key_QSARr>
WCHNJMNABRPWNP-UHFFFAOYSA-N

> <Salt_Solvent>
[Na+]

> <Salt_Solvent_ID>
110

> <Number of connected components>
5

$$$$
Molecule_417
  Mrv2316 01072400032D          

 25 26  0  0  0  0            999 V2000
    0.8288   -6.5505    0.0000 C   0  0  0  0  0  0  0  0  0  0  0  0
    1.5432   -6.1380    0.0000 C   0  0  0  0  0  0  0  0  0  0  0  0
    1.9557   -6.8525    0.0000 C   0  0  0  0  0  0  0  0  0  0  0  0
    1.1307   -5.4235    0.0000 O   0  0  0  0  0  0  0  0  0  0  0  0
    2.2577   -5.7255    0.0000 C   0  0  0  0  0  0  0  0  0  0  0  0
    2.9722   -6.1380    0.0000 O   0  0  0  0  0  0  0  0  0  0  0  0
    2.2577   -4.9005    0.0000 C   0  0  0  0  0  0  0  0  0  0  0  0
    2.9722   -4.4880    0.0000 C   0  0  0  0  0  0  0  0  0  0  0  0
    2.9722   -3.6630    0.0000 C   0  0  0  0  0  0  0  0  0  0  0  0
    2.2577   -3.2505    0.0000 C   0  0  0  0  0  0  0  0  0  0  0  0
    2.2577   -2.4255    0.0000 C   0  0  0  0  0  0  0  0  0  0  0  0
    1.5432   -2.0130    0.0000 C   0  0  0  0  0  0  0  0  0  0  0  0
    1.5432   -1.1880    0.0000 C   0  0  0  0  0  0  0  0  0  0  0  0
    0.8288   -0.7755    0.0000 C   0  0  0  0  0  0  0  0  0  0  0  0
    0.1143   -1.1880    0.0000 C   0  0  0  0  0  0  0  0  0  0  0  0
   -0.6002   -0.7755    0.0000 C   0  0  0  0  0  0  0  0  0  0  0  0
   -0.6002    0.0495    0.0000 O   0  0  0  0  0  0  0  0  0  0  0  0
   -1.3146   -1.1880    0.0000 C   0  0  0  0  0  0  0  0  0  0  0  0
   -2.0291   -1.6005    0.0000 C   0  0  0  0  0  0  0  0  0  0  0  0
   -1.7271   -0.4735    0.0000 C   0  0  0  0  0  0  0  0  0  0  0  0
   -0.9021   -1.9025    0.0000 O   0  0  0  0  0  0  0  0  0  0  0  0
    0.1143   -2.0130    0.0000 C   0  0  0  0  0  0  0  0  0  0  0  0
    0.8288   -2.4255    0.0000 C   0  0  0  0  0  0  0  0  0  0  0  0
    1.5432   -3.6630    0.0000 C   0  0  0  0  0  0  0  0  0  0  0  0
    1.5432   -4.4880    0.0000 C   0  0  0  0  0  0  0  0  0  0  0  0
  1  2  1  0  0  0  0
  2  3  1  0  0  0  0
  2  4  1  0  0  0  0
  2  5  1  0  0  0  0
  5  6  2  0  0  0  0
  5  7  1  0  0  0  0
  8  7  1  0  0  0  0
  9  8  2  0  0  0  0
 10  9  1  0  0  0  0
 10 11  1  0  0  0  0
 11 12  1  0  0  0  0
 13 12  1  0  0  0  0
 14 13  2  0  0  0  0
 15 14  1  0  0  0  0
 15 16  1  0  0  0  0
 16 17  2  0  0  0  0
 16 18  1  0  0  0  0
 18 19  1  0  0  0  0
 18 20  1  0  0  0  0
 18 21  1  0  0  0  0
 22 15  2  0  0  0  0
 23 22  1  0  0  0  0
 12 23  2  0  0  0  0
 24 10  2  0  0  0  0
 25 24  1  0  0  0  0
  7 25  2  0  0  0  0
M  END
> <RowID>
417

> <Original_SMILES>
CC(C)(O)C(=O)C1C=CC(CC2C=CC(=CC=2)C(=O)C(C)(C)O)=CC=1

> <Canonical_QSARr>
CC(C)(O)C(=O)C1C=CC(CC2C=CC(=CC=2)C(=O)C(C)(C)O)=CC=1

> <InChI_Code_QSARr>
InChI=1S/C21H24O4/c1-20(2,24)18(22)16-9-5-14(6-10-16)13-15-7-11-17(12-8-15)19(23)21(3,4)25/h5-12,24-25H,13H2,1-4H3

> <InChI Key_QSARr>
PCKZAVNWRLEHIP-UHFFFAOYSA-N

> <Salt_Solvent>


> <Salt_Solvent_ID>
0

> <Number of connected components>
1

$$$$
Molecule_418
  Mrv2316 01072400032D          

 30 33  0  0  0  0            999 V2000
   -7.6268   -1.3830    0.0000 C   0  0  0  0  0  0  0  0  0  0  0  0
   -6.8089   -1.2753    0.0000 C   0  0  0  0  0  0  0  0  0  0  0  0
   -6.3067   -0.6208    0.0000 O   0  0  0  0  0  0  0  0  0  0  0  0
   -6.4143    0.1972    0.0000 Si  0  0  0  0  0  0  0  0  0  0  0  0
   -5.6999    0.6097    0.0000 C   0  0  0  0  0  0  0  0  0  0  0  0
   -4.9854    0.1972    0.0000 C   0  0  0  0  0  0  0  0  0  0  0  0
   -4.2709    0.6097    0.0000 C   0  0  0  0  0  0  0  0  0  0  0  0
   -3.5565    0.1972    0.0000 S   0  0  0  0  0  0  0  0  0  0  0  0
   -2.8420    0.6097    0.0000 S   0  0  0  0  0  0  0  0  0  0  0  0
   -2.1275    0.1972    0.0000 C   0  0  0  0  0  0  0  0  0  0  0  0
   -1.4130    0.6097    0.0000 C   0  0  0  0  0  0  0  0  0  0  0  0
   -0.6986    0.1972    0.0000 C   0  0  0  0  0  0  0  0  0  0  0  0
    0.0159    0.6097    0.0000 Si  0  0  0  0  0  0  0  0  0  0  0  0
   -0.0918    1.4276    0.0000 O   0  0  0  0  0  0  0  0  0  0  0  0
    0.4104    2.0821    0.0000 C   0  0  0  0  0  0  0  0  0  0  0  0
    1.2284    2.1898    0.0000 C   0  0  0  0  0  0  0  0  0  0  0  0
    1.8829    1.6876    0.0000 N   0  0  0  0  0  0  0  0  0  0  0  0
    1.9906    0.8696    0.0000 C   0  0  0  0  0  0  0  0  0  0  0  0
    1.4884    0.2151    0.0000 C   0  0  0  0  0  0  0  0  0  0  0  0
    0.6704    0.1074    0.0000 O   0  0  0  0  0  0  0  0  0  0  0  0
    1.3488    1.5348    0.0000 C   0  0  0  0  0  0  0  0  0  0  0  0
    0.8820    1.2653    0.0000 C   0  0  0  0  0  0  0  0  0  0  0  0
    0.4153    0.9958    0.0000 O   0  0  0  0  0  0  0  0  0  0  0  0
   -7.0689    0.6994    0.0000 O   0  0  0  0  0  0  0  0  0  0  0  0
   -7.8868    0.5917    0.0000 C   0  0  0  0  0  0  0  0  0  0  0  0
   -8.3890   -0.0628    0.0000 C   0  0  0  0  0  0  0  0  0  0  0  0
   -8.2813   -0.8808    0.0000 N   0  0  0  0  0  0  0  0  0  0  0  0
   -7.8820   -0.4946    0.0000 C   0  0  0  0  0  0  0  0  0  0  0  0
   -7.4152   -0.2251    0.0000 C   0  0  0  0  0  0  0  0  0  0  0  0
   -6.9485    0.0444    0.0000 O   0  0  0  0  0  0  0  0  0  0  0  0
  2  1  1  0  0  0  0
  3  2  1  0  0  0  0
  4  3  1  0  0  0  0
  4  5  1  0  0  0  0
  5  6  1  0  0  0  0
  6  7  1  0  0  0  0
  7  8  1  0  0  0  0
  8  9  1  0  0  0  0
  9 10  1  0  0  0  0
 10 11  1  0  0  0  0
 11 12  1  0  0  0  0
 12 13  1  0  0  0  0
 14 13  1  0  0  0  0
 15 14  1  0  0  0  0
 16 15  1  0  0  0  0
 17 16  1  0  0  0  0
 17 18  1  0  0  0  0
 18 19  1  0  0  0  0
 19 20  1  0  0  0  0
 20 13  1  0  0  0  0
 21 17  1  0  0  0  0
 22 21  1  0  0  0  0
 23 22  1  0  0  0  0
 13 23  1  0  0  0  0
  4 24  1  0  0  0  0
 24 25  1  0  0  0  0
 25 26  1  0  0  0  0
 26 27  1  0  0  0  0
  1 27  1  0  0  0  0
 27 28  1  0  0  0  0
 28 29  1  0  0  0  0
 29 30  1  0  0  0  0
 30  4  1  0  0  0  0
M  END
> <RowID>
418

> <Original_SMILES>
C1CO[Si]2(CCCSSCCC[Si]34OCCN(CCO3)CCO4)OCCN1CCO2

> <Canonical_QSARr>
C1CO[Si]2(CCCSSCCC[Si]34OCCN(CCO3)CCO4)OCCN1CCO2

> <InChI_Code_QSARr>
InChI=1S/C18H36N2O6S2Si2/c1(17-29-21-9-3-19(4-10-22-29)5-11-23-29)15-27-28-16-2-18-30-24-12-6-20(7-13-25-30)8-14-26-30/h1-18H2

> <InChI Key_QSARr>
JPSITVNBUQSBEV-UHFFFAOYSA-N

> <Salt_Solvent>


> <Salt_Solvent_ID>
0

> <Number of connected components>
1

$$$$
Molecule_419
  Mrv2316 01072400032D          

  8  8  0  0  0  0            999 V2000
   -0.3106   -1.3137    0.0000 C   0  0  0  0  0  0  0  0  0  0  0  0
    0.1743   -0.6463    0.0000 N   0  3  0  0  0  0  0  0  0  0  0  0
    0.9993   -0.6463    0.0000 C   0  0  0  0  0  0  0  0  0  0  0  0
    1.2543    0.1383    0.0000 C   0  0  0  0  0  0  0  0  0  0  0  0
    0.5868    0.6233    0.0000 N   0  0  0  0  0  0  0  0  0  0  0  0
    0.5868    1.4483    0.0000 C   0  0  0  0  0  0  0  0  0  0  0  0
   -0.1276    1.8608    0.0000 C   0  0  0  0  0  0  0  0  0  0  0  0
   -0.0806    0.1383    0.0000 C   0  0  0  0  0  0  0  0  0  0  0  0
  1  2  1  0  0  0  0
  3  2  1  0  0  0  0
  4  3  2  0  0  0  0
  5  4  1  0  0  0  0
  5  6  1  0  0  0  0
  6  7  1  0  0  0  0
  8  5  1  0  0  0  0
  2  8  2  0  0  0  0
M  CHG  1   2   1
M  END
> <RowID>
419

> <Original_SMILES>
C[N+]1=CN(CC)C=C1.CCOS([O-])(=O)=O

> <Canonical_QSARr>
CCN1C=[N+](C)C=C1

> <InChI_Code_QSARr>
InChI=1S/C6H11N2/c1-3-8-5-4-7(2)6-8/h4-6H,3H2,1-2H3/q+1

> <InChI Key_QSARr>
NJMWOUFKYKNWDW-UHFFFAOYSA-N

> <Salt_Solvent>
CCOS(=O)(=O)[O-]

> <Salt_Solvent_ID>
2457

> <Number of connected components>
2

$$$$
Molecule_420
  Mrv2316 01072400032D          

 21 22  0  0  0  0            999 V2000
    2.4156   -1.9054    0.0000 C   0  0  0  0  0  0  0  0  0  0  0  0
    1.7011   -2.3179    0.0000 C   0  0  0  0  0  0  0  0  0  0  0  0
    1.7011   -3.1429    0.0000 C   0  0  0  0  0  0  0  0  0  0  0  0
    2.4156   -3.5554    0.0000 N   0  0  0  0  0  0  0  0  0  0  0  0
    2.4156   -4.3804    0.0000 C   0  0  0  0  0  0  0  0  0  0  0  0
    3.1301   -4.7929    0.0000 C   0  0  0  0  0  0  0  0  0  0  0  0
    3.1301   -5.6179    0.0000 C   0  0  0  0  0  0  0  0  0  0  0  0
    3.8445   -6.0304    0.0000 C   0  0  0  0  0  0  0  0  0  0  0  0
    4.5590   -5.6179    0.0000 C   0  0  0  0  0  0  0  0  0  0  0  0
    4.5590   -4.7929    0.0000 C   0  0  0  0  0  0  0  0  0  0  0  0
    3.8445   -4.3804    0.0000 C   0  0  0  0  0  0  0  0  0  0  0  0
    3.8445   -3.5554    0.0000 O   0  0  0  0  0  0  0  0  0  0  0  0
    0.9866   -1.9054    0.0000 N   0  0  0  0  0  0  0  0  0  0  0  0
    0.9866   -1.0804    0.0000 C   0  0  0  0  0  0  0  0  0  0  0  0
    0.2722   -0.6679    0.0000 C   0  0  0  0  0  0  0  0  0  0  0  0
    0.2722    0.1571    0.0000 C   0  0  0  0  0  0  0  0  0  0  0  0
   -0.4423    0.5696    0.0000 C   0  0  0  0  0  0  0  0  0  0  0  0
   -1.1568    0.1571    0.0000 C   0  0  0  0  0  0  0  0  0  0  0  0
   -1.1568   -0.6679    0.0000 C   0  0  0  0  0  0  0  0  0  0  0  0
   -0.4423   -1.0804    0.0000 C   0  0  0  0  0  0  0  0  0  0  0  0
   -0.4423   -1.9054    0.0000 O   0  0  0  0  0  0  0  0  0  0  0  0
  1  2  1  0  0  0  0
  2  3  1  0  0  0  0
  4  3  1  4  0  0  0
  4  5  2  0  0  0  0
  5  6  1  0  0  0  0
  7  6  2  0  0  0  0
  8  7  1  0  0  0  0
  9  8  2  0  0  0  0
 10  9  1  0  0  0  0
 11 10  2  0  0  0  0
  6 11  1  0  0  0  0
 11 12  1  0  0  0  0
 13  2  1  4  0  0  0
 13 14  2  0  0  0  0
 14 15  1  0  0  0  0
 16 15  2  0  0  0  0
 17 16  1  0  0  0  0
 18 17  2  0  0  0  0
 19 18  1  0  0  0  0
 20 19  2  0  0  0  0
 15 20  1  0  0  0  0
 20 21  1  0  0  0  0
M  END
> <RowID>
420

> <Original_SMILES>
CC(CN=CC1=CC=CC=C1O)N=CC1=CC=CC=C1O

> <Canonical_QSARr>
CC(CN=CC1=CC=CC=C1O)N=CC1=CC=CC=C1O

> <InChI_Code_QSARr>
InChI=1S/C17H18N2O2/c1-13(19-12-15-7-3-5-9-17(15)21)10-18-11-14-6-2-4-8-16(14)20/h2-9,11-13,20-21H,10H2,1H3

> <InChI Key_QSARr>
RURPJGZXBHYNEM-UHFFFAOYSA-N

> <Salt_Solvent>


> <Salt_Solvent_ID>
0

> <Number of connected components>
1

$$$$
Molecule_421
  Mrv2316 01072400032D          

  4  3  0  0  0  0            999 V2000
    1.2375    0.7145    0.0000 O   0  0  0  0  0  0  0  0  0  0  0  0
    0.8250   -0.0000    0.0000 C   0  0  0  0  0  0  0  0  0  0  0  0
    1.2375   -0.7145    0.0000 O   0  0  0  0  0  0  0  0  0  0  0  0
    0.0000   -0.0000    0.0000 C   0  0  0  0  0  0  0  0  0  0  0  0
  1  2  1  0  0  0  0
  2  3  2  0  0  0  0
  2  4  1  0  0  0  0
M  END
> <RowID>
421

> <Original_SMILES>
[Na+].CC([O-])=O

> <Canonical_QSARr>
CC(O)=O

> <InChI_Code_QSARr>
InChI=1S/C2H4O2/c1-2(3)4/h1H3,(H,3,4)

> <InChI Key_QSARr>
QTBSBXVTEAMEQO-UHFFFAOYSA-N

> <Salt_Solvent>
[Na+]

> <Salt_Solvent_ID>
110

> <Number of connected components>
2

$$$$
Molecule_422
  Mrv2316 01072400032D          

 16 16  0  0  0  0            999 V2000
    2.6346   -1.2633    0.0000 C   0  0  0  0  0  0  0  0  0  0  0  0
    1.9201   -0.8508    0.0000 C   0  0  0  0  0  0  0  0  0  0  0  0
    1.2057   -1.2633    0.0000 O   0  0  0  0  0  0  0  0  0  0  0  0
    1.9201   -0.0258    0.0000 N   0  0  0  0  0  0  0  0  0  0  0  0
    1.2057    0.3867    0.0000 C   0  0  0  0  0  0  0  0  0  0  0  0
    1.2057    1.2117    0.0000 C   0  0  0  0  0  0  0  0  0  0  0  0
    0.4912    1.6242    0.0000 C   0  0  0  0  0  0  0  0  0  0  0  0
    0.4912    2.4492    0.0000 S   0  0  0  0  0  0  0  0  0  0  0  0
    0.4912    3.2742    0.0000 O   0  0  0  0  0  0  0  0  0  0  0  0
    1.3162    2.4492    0.0000 O   0  0  0  0  0  0  0  0  0  0  0  0
   -0.3338    2.4492    0.0000 O   0  0  0  0  0  0  0  0  0  0  0  0
   -0.2233    1.2117    0.0000 C   0  0  0  0  0  0  0  0  0  0  0  0
   -0.2233    0.3867    0.0000 C   0  0  0  0  0  0  0  0  0  0  0  0
   -0.9377   -0.0258    0.0000 N   0  0  0  0  0  0  0  0  0  0  0  0
    0.4912   -0.0258    0.0000 C   0  0  0  0  0  0  0  0  0  0  0  0
    0.4912   -0.8508    0.0000 O   0  0  0  0  0  0  0  0  0  0  0  0
  1  2  1  0  0  0  0
  2  3  2  0  0  0  0
  2  4  1  0  0  0  0
  4  5  1  0  0  0  0
  6  5  2  0  0  0  0
  7  6  1  0  0  0  0
  7  8  1  0  0  0  0
  8  9  1  0  0  0  0
  8 10  2  0  0  0  0
  8 11  2  0  0  0  0
 12  7  2  0  0  0  0
 13 12  1  0  0  0  0
 13 14  1  0  0  0  0
 15 13  2  0  0  0  0
  5 15  1  0  0  0  0
 15 16  1  0  0  0  0
M  END
> <RowID>
422

> <Original_SMILES>
CC(=O)NC1=CC(=CC(N)=C1O)S(O)(=O)=O

> <Canonical_QSARr>
CC(=O)NC1=CC(=CC(N)=C1O)S(O)(=O)=O

> <InChI_Code_QSARr>
InChI=1S/C8H10N2O5S/c1-4(11)10-7-3-5(16(13,14)15)2-6(9)8(7)12/h2-3,12H,9H2,1H3,(H,10,11)(H,13,14,15)

> <InChI Key_QSARr>
SFUJTLIHMWZDTL-UHFFFAOYSA-N

> <Salt_Solvent>


> <Salt_Solvent_ID>
0

> <Number of connected components>
1

$$$$
Molecule_423
  Mrv2316 01072400032D          

 22 24  0  0  0  0            999 V2000
   -1.0453   -0.9855    0.0000 C   0  0  0  0  0  0  0  0  0  0  0  0
   -0.3308   -0.5730    0.0000 O   0  0  0  0  0  0  0  0  0  0  0  0
    0.3837   -0.9855    0.0000 C   0  0  0  0  0  0  0  0  0  0  0  0
    1.0981   -0.5730    0.0000 C   0  0  0  0  0  0  0  0  0  0  0  0
    1.8126   -0.9855    0.0000 C   0  0  0  0  0  0  0  0  0  0  0  0
    2.5271   -0.5730    0.0000 C   0  0  0  0  0  0  0  0  0  0  0  0
    3.2416   -0.9855    0.0000 C   0  0  0  0  0  0  0  0  0  0  0  0
    3.2416   -1.8105    0.0000 C   0  0  0  0  0  0  0  0  0  0  0  0
    2.5271   -2.2230    0.0000 C   0  0  0  0  0  0  0  0  0  0  0  0
    2.5271   -3.0480    0.0000 C   0  0  0  0  0  0  0  0  0  0  0  0
    3.2416   -3.4605    0.0000 C   0  0  0  0  0  0  0  0  0  0  0  0
    3.9560   -3.0480    0.0000 C   0  0  0  0  0  0  0  0  0  0  0  0
    3.4711   -2.3805    0.0000 C   0  0  0  0  0  0  0  0  0  0  0  0
    4.2916   -3.8017    0.0000 C   0  0  0  0  0  0  0  0  0  0  0  0
    3.8791   -4.5161    0.0000 O   0  0  0  0  0  0  0  0  0  0  0  0
    5.1121   -3.7154    0.0000 C   0  0  0  0  0  0  0  0  0  0  0  0
    5.2836   -2.9084    0.0000 C   0  0  0  0  0  0  0  0  0  0  0  0
    4.5691   -2.4959    0.0000 C   0  0  0  0  0  0  0  0  0  0  0  0
    4.4829   -1.6755    0.0000 O   0  0  0  0  0  0  0  0  0  0  0  0
    1.8126   -1.8105    0.0000 C   0  0  0  0  0  0  0  0  0  0  0  0
    1.0981   -2.2230    0.0000 C   0  0  0  0  0  0  0  0  0  0  0  0
    0.3837   -1.8105    0.0000 C   0  0  0  0  0  0  0  0  0  0  0  0
  1  2  1  0  0  0  0
  2  3  1  0  0  0  0
  4  3  2  0  0  0  0
  5  4  1  0  0  0  0
  5  6  1  0  0  0  0
  6  7  1  0  0  0  0
  7  8  1  0  0  0  0
  8  9  1  0  0  0  0
  9 10  2  0  0  0  0
 10 11  1  4  0  0  0
 11 12  1  0  0  0  0
 12 13  1  0  0  0  0
 14 12  1  0  0  0  0
 14 15  2  0  0  0  0
 16 14  1  0  0  0  0
 17 16  1  0  0  0  0
 18 17  1  0  0  0  0
 12 18  1  0  0  0  0
 18 19  2  0  0  0  0
  9 20  1  0  0  0  0
 20  5  2  0  0  0  0
 21 20  1  0  0  0  0
 22 21  2  0  0  0  0
  3 22  1  0  0  0  0
M  END
> <RowID>
423

> <Original_SMILES>
COC1=CC2CCCC(=CCC3(C)C(=O)CCC3=O)C=2C=C1

> <Canonical_QSARr>
COC1=CC2CCCC(=CCC3(C)C(=O)CCC3=O)C=2C=C1

> <InChI_Code_QSARr>
InChI=1S/C19H22O3/c1-19(17(20)8-9-18(19)21)11-10-13-4-3-5-14-12-15(22-2)6-7-16(13)14/h6-7,10,12H,3-5,8-9,11H2,1-2H3

> <InChI Key_QSARr>
PHYRXYUDHILFBN-UHFFFAOYSA-N

> <Salt_Solvent>


> <Salt_Solvent_ID>
0

> <Number of connected components>
1

$$$$
Molecule_425
  Mrv2316 01072400032D          

 52 54  0  0  0  0            999 V2000
   -6.1061    0.4778    0.0000 C   0  0  0  0  0  0  0  0  0  0  0  0
   -6.3883   -0.2974    0.0000 O   0  0  0  0  0  0  0  0  0  0  0  0
   -5.8580   -0.9294    0.0000 C   0  0  0  0  0  0  0  0  0  0  0  0
   -6.5724   -1.3419    0.0000 C   0  0  0  0  0  0  0  0  0  0  0  0
   -7.2869   -0.9294    0.0000 O   0  0  0  0  0  0  0  0  0  0  0  0
   -6.5724   -2.1669    0.0000 C   0  0  0  0  0  0  0  0  0  0  0  0
   -7.2869   -2.5794    0.0000 C   0  0  0  0  0  0  0  0  0  0  0  0
   -5.8580   -2.5794    0.0000 O   0  0  0  0  0  0  0  0  0  0  0  0
   -5.1435   -2.1669    0.0000 C   0  0  0  0  0  0  0  0  0  0  0  0
   -4.4290   -2.5794    0.0000 O   0  0  0  0  0  0  0  0  0  0  0  0
   -3.7145   -2.1669    0.0000 C   0  0  0  0  0  0  0  0  0  0  0  0
   -3.0001   -2.5794    0.0000 C   0  0  0  0  0  0  0  0  0  0  0  0
   -2.2856   -2.1669    0.0000 C   0  0  0  0  0  0  0  0  0  0  0  0
   -3.0001   -3.4044    0.0000 C   0  0  0  0  0  0  0  0  0  0  0  0
   -3.7145   -3.8169    0.0000 O   0  0  0  0  0  0  0  0  0  0  0  0
   -2.2856   -3.8169    0.0000 O   0  0  0  0  0  0  0  0  0  0  0  0
   -1.5711   -3.4044    0.0000 C   0  0  0  0  0  0  0  0  0  0  0  0
   -1.5711   -4.2294    0.0000 C   0  0  0  0  0  0  0  0  0  0  0  0
   -2.2856   -4.6419    0.0000 C   0  0  0  0  0  0  0  0  0  0  0  0
   -0.8567   -3.8169    0.0000 C   0  0  0  0  0  0  0  0  0  0  0  0
   -1.3870   -4.4489    0.0000 O   0  0  0  0  0  0  0  0  0  0  0  0
   -0.3264   -4.4489    0.0000 C   0  0  0  0  0  0  0  0  0  0  0  0
   -0.1422   -3.4044    0.0000 C   0  0  0  0  0  0  0  0  0  0  0  0
    0.5723   -3.8169    0.0000 O   0  0  0  0  0  0  0  0  0  0  0  0
   -0.1422   -2.5794    0.0000 C   0  0  0  0  0  0  0  0  0  0  0  0
    0.5723   -2.1669    0.0000 C   0  0  0  0  0  0  0  0  0  0  0  0
   -0.8567   -2.1669    0.0000 C   0  0  0  0  0  0  0  0  0  0  0  0
   -0.1422   -1.7544    0.0000 N   0  0  0  0  0  0  0  0  0  0  0  0
    0.6783   -1.6682    0.0000 O   0  0  0  0  0  0  0  0  0  0  0  0
   -0.8567   -1.3419    0.0000 C   0  0  0  0  0  0  0  0  0  0  0  0
   -0.1422   -0.9294    0.0000 C   0  0  0  0  0  0  0  0  0  0  0  0
   -1.5711   -0.9294    0.0000 C   0  0  0  0  0  0  0  0  0  0  0  0
   -2.2856   -1.3419    0.0000 C   0  0  0  0  0  0  0  0  0  0  0  0
   -2.0034   -0.5667    0.0000 O   0  0  0  0  0  0  0  0  0  0  0  0
   -2.5678   -0.5667    0.0000 C   0  0  0  0  0  0  0  0  0  0  0  0
   -3.0001   -0.9294    0.0000 C   0  0  0  0  0  0  0  0  0  0  0  0
   -3.0001   -0.1044    0.0000 O   0  0  0  0  0  0  0  0  0  0  0  0
   -3.7145    0.3081    0.0000 C   0  0  0  0  0  0  0  0  0  0  0  0
   -3.7145    1.1331    0.0000 C   0  0  0  0  0  0  0  0  0  0  0  0
   -3.0001    1.5456    0.0000 O   0  0  0  0  0  0  0  0  0  0  0  0
   -4.4290    1.5456    0.0000 C   0  0  0  0  0  0  0  0  0  0  0  0
   -4.4290    2.3706    0.0000 N   0  0  0  0  0  0  0  0  0  0  0  0
   -5.1435    2.7831    0.0000 C   0  0  0  0  0  0  0  0  0  0  0  0
   -3.7145    2.7831    0.0000 C   0  0  0  0  0  0  0  0  0  0  0  0
   -5.1435    1.1331    0.0000 C   0  0  0  0  0  0  0  0  0  0  0  0
   -5.1435    0.3081    0.0000 C   0  0  0  0  0  0  0  0  0  0  0  0
   -5.8580   -0.1044    0.0000 C   0  0  0  0  0  0  0  0  0  0  0  0
   -4.4290   -0.1044    0.0000 O   0  0  0  0  0  0  0  0  0  0  0  0
   -3.7145   -1.3419    0.0000 C   0  0  0  0  0  0  0  0  0  0  0  0
   -4.4290   -0.9294    0.0000 C   0  0  0  0  0  0  0  0  0  0  0  0
   -5.1435   -1.3419    0.0000 C   0  0  0  0  0  0  0  0  0  0  0  0
   -5.3277   -0.2974    0.0000 C   0  0  0  0  0  0  0  0  0  0  0  0
  1  2  1  0  0  0  0
  2  3  1  0  0  0  0
  4  3  1  0  0  0  0
  4  5  1  0  0  0  0
  6  4  1  0  0  0  0
  6  7  1  0  0  0  0
  8  6  1  0  0  0  0
  9  8  1  0  0  0  0
  9 10  1  0  0  0  0
 10 11  1  0  0  0  0
 12 11  1  0  0  0  0
 12 13  1  0  0  0  0
 14 12  1  0  0  0  0
 14 15  2  0  0  0  0
 16 14  1  0  0  0  0
 17 16  1  0  0  0  0
 17 18  1  0  0  0  0
 18 19  1  0  0  0  0
 20 17  1  0  0  0  0
 20 21  1  0  0  0  0
 20 22  1  0  0  0  0
 23 20  1  0  0  0  0
 23 24  1  0  0  0  0
 25 23  1  0  0  0  0
 25 26  1  0  0  0  0
 27 25  1  0  0  0  0
 27 28  2  0  0  0  0
 28 29  1  4  0  0  0
 30 27  1  0  0  0  0
 30 31  1  0  0  0  0
 32 30  1  0  0  0  0
 33 32  1  0  0  0  0
 33 34  1  0  0  0  0
 33 35  1  0  0  0  0
 36 33  1  0  0  0  0
 36 37  1  0  0  0  0
 37 38  1  0  0  0  0
 39 38  1  0  0  0  0
 39 40  1  0  0  0  0
 41 39  1  0  0  0  0
 41 42  1  0  0  0  0
 42 43  1  0  0  0  0
 42 44  1  0  0  0  0
 45 41  1  0  0  0  0
 46 45  1  0  0  0  0
 46 47  1  0  0  0  0
 48 46  1  0  0  0  0
 38 48  1  0  0  0  0
 49 36  1  0  0  0  0
 11 49  1  0  0  0  0
 49 50  1  0  0  0  0
 51  9  1  0  0  0  0
  3 51  1  0  0  0  0
  3 52  1  0  0  0  0
M  END
> <RowID>
425

> <Original_SMILES>
Cl.COC1(C)CC(OC(C)C1O)OC1C(C)C(OC2OC(C)CC(C2O)N(C)C)C(C)(O)CC(C)C(=NO)C(C)C(O)C(C)(O)C(CC)OC(=O)C1C

> <Canonical_QSARr>
COC1(C)CC(OC(C)C1O)OC1C(C)C(OC2OC(C)CC(C2O)N(C)C)C(C)(O)CC(C)C(=NO)C(C)C(O)C(C)(O)C(CC)OC(=O)C1C

> <InChI_Code_QSARr>
InChI=1S/C37H68N2O13/c1-14-25-37(10,45)30(41)20(4)27(38-46)18(2)16-35(8,44)32(52-34-28(40)24(39(11)12)15-19(3)48-34)21(5)29(22(6)33(43)50-25)51-26-17-36(9,47-13)31(42)23(7)49-26/h18-26,28-32,34,40-42,44-46H,14-17H2,1-13H3

> <InChI Key_QSARr>
KYTWXIARANQMCA-UHFFFAOYSA-N

> <Salt_Solvent>
Cl

> <Salt_Solvent_ID>
170

> <Number of connected components>
2

$$$$
Molecule_426
  Mrv2316 01072400032D          

  2  1  0  0  0  0            999 V2000
    0.8250    0.0000    0.0000 C   0  0  0  0  0  0  0  0  0  0  0  0
    0.0000    0.0000    0.0000 N   0  0  0  0  0  0  0  0  0  0  0  0
  1  2  3  0  0  0  0
M  END
> <RowID>
426

> <Original_SMILES>
[NH4+].[Fe+2].[Fe+3].[C-]#N.[C-]#N.[C-]#N.[C-]#N.[C-]#N.[C-]#N

> <Canonical_QSARr>
C#N

> <InChI_Code_QSARr>
InChI=1S/CHN/c1-2/h1H

> <InChI Key_QSARr>
LELOWRISYMNNSU-UHFFFAOYSA-N

> <Salt_Solvent>
[NH4+].[Fe+2].[Fe+3]

> <Salt_Solvent_ID>
165

> <Number of connected components>
9

$$$$
Molecule_427
  Mrv2316 01072400032D          

 11 10  0  0  0  0            999 V2000
    1.0461    1.4289    0.0000 C   0  0  0  0  0  0  0  0  0  0  0  0
    1.7605    1.8414    0.0000 O   0  0  0  0  0  0  0  0  0  0  0  0
    2.4750    1.4289    0.0000 C   0  0  0  0  0  0  0  0  0  0  0  0
    2.4750    0.6039    0.0000 O   0  0  0  0  0  0  0  0  0  0  0  0
    3.1895    1.8414    0.0000 C   0  0  0  0  0  0  0  0  0  0  0  0
    3.9039    1.4289    0.0000 C   0  0  0  0  0  0  0  0  0  0  0  0
    3.9039    0.6039    0.0000 C   0  0  0  0  0  0  0  0  0  0  0  0
    4.6184    1.8414    0.0000 C   0  0  0  0  0  0  0  0  0  0  0  0
    4.6184    2.6664    0.0000 O   0  0  0  0  0  0  0  0  0  0  0  0
    5.3329    1.4289    0.0000 O   0  0  0  0  0  0  0  0  0  0  0  0
    6.0474    1.8414    0.0000 C   0  0  0  0  0  0  0  0  0  0  0  0
  1  2  1  0  0  0  0
  2  3  1  0  0  0  0
  3  4  2  0  0  0  0
  3  5  1  0  0  0  0
  5  6  1  0  0  0  0
  6  7  2  0  0  0  0
  6  8  1  0  0  0  0
  8  9  2  0  0  0  0
  8 10  1  0  0  0  0
 10 11  1  0  0  0  0
M  END
> <RowID>
427

> <Original_SMILES>
COC(=O)CC(=C)C(=O)OC

> <Canonical_QSARr>
COC(=O)CC(=C)C(=O)OC

> <InChI_Code_QSARr>
InChI=1S/C7H10O4/c1-5(7(9)11-3)4-6(8)10-2/h1,4H2,2-3H3

> <InChI Key_QSARr>
ZWWQRMFIZFPUAA-UHFFFAOYSA-N

> <Salt_Solvent>


> <Salt_Solvent_ID>
0

> <Number of connected components>
1

$$$$
Molecule_428
  Mrv2316 01072400032D          

 14 14  0  0  0  0            999 V2000
   -0.9836   -2.9341    0.0000 C   0  0  0  0  0  0  0  0  0  0  0  0
   -0.2691   -3.3466    0.0000 C   0  0  0  0  0  0  0  0  0  0  0  0
    0.4454   -2.9341    0.0000 C   0  0  0  0  0  0  0  0  0  0  0  0
    1.1598   -3.3466    0.0000 C   0  0  0  0  0  0  0  0  0  0  0  0
    1.8743   -2.9341    0.0000 C   0  0  0  0  0  0  0  0  0  0  0  0
    2.5888   -3.3466    0.0000 C   0  0  0  0  0  0  0  0  0  0  0  0
    3.3033   -2.9341    0.0000 O   0  0  0  0  0  0  0  0  0  0  0  0
    4.0177   -3.3466    0.0000 C   0  0  0  0  0  0  0  0  0  0  0  0
    4.1040   -4.1671    0.0000 C   0  0  0  0  0  0  0  0  0  0  0  0
    4.9109   -4.3386    0.0000 C   0  0  0  0  0  0  0  0  0  0  0  0
    5.3234   -3.6241    0.0000 C   0  0  0  0  0  0  0  0  0  0  0  0
    5.9909   -4.1091    0.0000 C   0  0  0  0  0  0  0  0  0  0  0  0
    5.8755   -3.0110    0.0000 C   0  0  0  0  0  0  0  0  0  0  0  0
    4.7714   -3.0110    0.0000 O   0  0  0  0  0  0  0  0  0  0  0  0
  1  2  1  0  0  0  0
  2  3  1  0  0  0  0
  3  4  1  0  0  0  0
  4  5  1  0  0  0  0
  5  6  1  0  0  0  0
  6  7  1  0  0  0  0
  7  8  1  0  0  0  0
  9  8  1  0  0  0  0
 10  9  1  0  0  0  0
 11 10  1  0  0  0  0
 11 12  1  0  0  0  0
 11 13  1  0  0  0  0
 14 11  1  0  0  0  0
  8 14  1  0  0  0  0
M  END
> <RowID>
428

> <Original_SMILES>
CCCCCCOC1CCC(C)(C)O1

> <Canonical_QSARr>
CCCCCCOC1CCC(C)(C)O1

> <InChI_Code_QSARr>
InChI=1S/C12H24O2/c1-4-5-6-7-10-13-11-8-9-12(2,3)14-11/h11H,4-10H2,1-3H3

> <InChI Key_QSARr>
RYOVSGSAWWEDFA-UHFFFAOYSA-N

> <Salt_Solvent>


> <Salt_Solvent_ID>
0

> <Number of connected components>
1

$$$$
Molecule_429
  Mrv2316 01072400032D          

 21 21  0  0  0  0            999 V2000
    2.1434   -1.2375    0.0000 C   0  0  0  0  0  0  0  0  0  0  0  0
    2.1434   -0.4125    0.0000 C   0  0  0  0  0  0  0  0  0  0  0  0
    2.8579   -0.0000    0.0000 C   0  0  0  0  0  0  0  0  0  0  0  0
    1.4289   -0.0000    0.0000 C   0  0  0  0  0  0  0  0  0  0  0  0
    1.4289    0.8250    0.0000 C   0  0  0  0  0  0  0  0  0  0  0  0
    0.7145    1.2375    0.0000 C   0  0  0  0  0  0  0  0  0  0  0  0
    0.7145    2.0625    0.0000 C   0  0  0  0  0  0  0  0  0  0  0  0
   -0.0000    2.4750    0.0000 C   0  0  0  0  0  0  0  0  0  0  0  0
    1.4289    2.4750    0.0000 C   0  0  0  0  0  0  0  0  0  0  0  0
   -0.0000    0.8250    0.0000 C   0  0  0  0  0  0  0  0  0  0  0  0
   -0.7145    1.2375    0.0000 N   0  3  0  0  0  0  0  0  0  0  0  0
   -1.4289    0.8250    0.0000 O   0  5  0  0  0  0  0  0  0  0  0  0
   -0.7145    2.0625    0.0000 O   0  0  0  0  0  0  0  0  0  0  0  0
   -0.0000    0.0000    0.0000 C   0  0  0  0  0  0  0  0  0  0  0  0
   -0.7145   -0.4125    0.0000 C   0  0  0  0  0  0  0  0  0  0  0  0
   -0.7145   -1.2375    0.0000 C   0  0  0  0  0  0  0  0  0  0  0  0
   -1.4289   -0.0000    0.0000 C   0  0  0  0  0  0  0  0  0  0  0  0
    0.7145   -0.4125    0.0000 C   0  0  0  0  0  0  0  0  0  0  0  0
    0.7145   -1.2375    0.0000 N   0  3  0  0  0  0  0  0  0  0  0  0
    1.4289   -1.6500    0.0000 O   0  5  0  0  0  0  0  0  0  0  0  0
   -0.0000   -1.6500    0.0000 O   0  0  0  0  0  0  0  0  0  0  0  0
  1  2  1  0  0  0  0
  2  3  1  0  0  0  0
  2  4  1  0  0  0  0
  5  4  2  0  0  0  0
  6  5  1  0  0  0  0
  6  7  1  0  0  0  0
  7  8  1  0  0  0  0
  7  9  1  0  0  0  0
 10  6  2  0  0  0  0
 10 11  1  0  0  0  0
 11 12  1  0  0  0  0
 11 13  2  0  0  0  0
 14 10  1  0  0  0  0
 14 15  1  0  0  0  0
 15 16  1  0  0  0  0
 15 17  1  0  0  0  0
 18 14  2  0  0  0  0
  4 18  1  0  0  0  0
 18 19  1  0  0  0  0
 19 20  1  0  0  0  0
 19 21  2  0  0  0  0
M  CHG  4  11   1  12  -1  19   1  20  -1
M  END
> <RowID>
429

> <Original_SMILES>
CC(C)C1=CC(C(C)C)=C(C(C(C)C)=C1[N+]([O-])=O)[N+]([O-])=O

> <Canonical_QSARr>
CC(C)C1=CC(C(C)C)=C(C(C(C)C)=C1[N+]([O-])=O)[N+]([O-])=O

> <InChI_Code_QSARr>
InChI=1S/C15H22N2O4/c1-8(2)11-7-12(9(3)4)15(17(20)21)13(10(5)6)14(11)16(18)19/h7-10H,1-6H3

> <InChI Key_QSARr>
NGJYAFYAFKBGRH-UHFFFAOYSA-N

> <Salt_Solvent>


> <Salt_Solvent_ID>
0

> <Number of connected components>
1

$$$$
Molecule_430
  Mrv2316 01072400032D          

 11 10  0  0  0  0            999 V2000
   -0.6039   -3.3000    0.0000 C   0  0  0  0  0  0  0  0  0  0  0  0
   -0.6039   -2.4750    0.0000 C   0  0  0  0  0  0  0  0  0  0  0  0
   -1.3184   -2.0625    0.0000 C   0  0  0  0  0  0  0  0  0  0  0  0
    0.1105   -2.0625    0.0000 O   0  0  0  0  0  0  0  0  0  0  0  0
    0.1105   -1.2375    0.0000 C   0  0  0  0  0  0  0  0  0  0  0  0
   -0.6039   -0.8250    0.0000 O   0  0  0  0  0  0  0  0  0  0  0  0
    0.8250   -0.8250    0.0000 N   0  0  0  0  0  0  0  0  0  0  0  0
    0.8250   -0.0000    0.0000 P   0  0  0  0  0  0  0  0  0  0  0  0
    0.8250    0.8250    0.0000 N   0  0  0  0  0  0  0  0  0  0  0  0
    1.6500   -0.0000    0.0000 N   0  0  0  0  0  0  0  0  0  0  0  0
    0.0000   -0.0000    0.0000 O   0  0  0  0  0  0  0  0  0  0  0  0
  1  2  1  0  0  0  0
  2  3  1  0  0  0  0
  2  4  1  0  0  0  0
  4  5  1  0  0  0  0
  5  6  2  0  0  0  0
  5  7  1  0  0  0  0
  7  8  1  0  0  0  0
  8  9  1  0  0  0  0
  8 10  1  0  0  0  0
  8 11  2  0  0  0  0
M  END
> <RowID>
430

> <Original_SMILES>
CC(C)OC(=O)NP(N)(N)=O

> <Canonical_QSARr>
CC(C)OC(=O)NP(N)(N)=O

> <InChI_Code_QSARr>
InChI=1S/C4H12N3O3P/c1-3(2)10-4(8)7-11(5,6)9/h3H,1-2H3,(H5,5,6,7,8,9)

> <InChI Key_QSARr>
ZARZBWDSUPTESR-UHFFFAOYSA-N

> <Salt_Solvent>


> <Salt_Solvent_ID>
0

> <Number of connected components>
1

$$$$
Molecule_431
  Mrv2316 01072400032D          

 13 13  0  0  0  0            999 V2000
    0.6595   -0.5077    0.0000 C   0  0  0  0  0  0  0  0  0  0  0  0
    1.3740   -0.0952    0.0000 C   0  0  0  0  0  0  0  0  0  0  0  0
    2.0885   -0.5077    0.0000 C   0  0  0  0  0  0  0  0  0  0  0  0
    2.8029   -0.0952    0.0000 C   0  0  0  0  0  0  0  0  0  0  0  0
    2.8029    0.7298    0.0000 C   0  0  0  0  0  0  0  0  0  0  0  0
    2.0885    1.1423    0.0000 C   0  0  0  0  0  0  0  0  0  0  0  0
    2.6188    1.7743    0.0000 C   0  0  0  0  0  0  0  0  0  0  0  0
    1.5582    1.7743    0.0000 C   0  0  0  0  0  0  0  0  0  0  0  0
    1.3740    0.7298    0.0000 C   0  0  0  0  0  0  0  0  0  0  0  0
    0.6595    1.1423    0.0000 C   0  0  0  0  0  0  0  0  0  0  0  0
   -0.0550    0.7298    0.0000 O   0  0  0  0  0  0  0  0  0  0  0  0
    0.6595    1.9673    0.0000 O   0  0  0  0  0  0  0  0  0  0  0  0
   -0.0550    2.3798    0.0000 C   0  0  0  0  0  0  0  0  0  0  0  0
  1  2  1  0  0  0  0
  3  2  1  0  0  0  0
  4  3  2  0  0  0  0
  5  4  1  0  0  0  0
  6  5  1  0  0  0  0
  6  7  1  0  0  0  0
  6  8  1  0  0  0  0
  9  6  1  0  0  0  0
  2  9  1  0  0  0  0
  9 10  1  0  0  0  0
 10 11  2  0  0  0  0
 10 12  1  0  0  0  0
 12 13  1  0  0  0  0
M  END
> <RowID>
431

> <Original_SMILES>
CC1C=CCC(C)(C)C1C(=O)OC

> <Canonical_QSARr>
CC1C=CCC(C)(C)C1C(=O)OC

> <InChI_Code_QSARr>
InChI=1S/C11H18O2/c1-8-6-5-7-11(2,3)9(8)10(12)13-4/h5-6,8-9H,7H2,1-4H3

> <InChI Key_QSARr>
OENXQYZXKNBMLM-UHFFFAOYSA-N

> <Salt_Solvent>


> <Salt_Solvent_ID>
0

> <Number of connected components>
1

$$$$
Molecule_432
  Mrv2316 01072400032D          

 18 20  0  0  0  0            999 V2000
    5.7158    0.1375    0.0000 C   0  0  0  0  0  0  0  0  0  0  0  0
    5.0013   -0.2750    0.0000 C   0  0  0  0  0  0  0  0  0  0  0  0
    4.2868    0.1375    0.0000 C   0  0  0  0  0  0  0  0  0  0  0  0
    3.5724   -0.2750    0.0000 C   0  0  0  0  0  0  0  0  0  0  0  0
    2.8579    0.1375    0.0000 C   0  0  0  0  0  0  0  0  0  0  0  0
    2.8579    0.9625    0.0000 C   0  0  0  0  0  0  0  0  0  0  0  0
    2.1434    1.3750    0.0000 C   0  0  0  0  0  0  0  0  0  0  0  0
    2.1434    2.2000    0.0000 O   0  0  0  0  0  0  0  0  0  0  0  0
    1.4289    0.9625    0.0000 C   0  0  0  0  0  0  0  0  0  0  0  0
    0.7145    1.3750    0.0000 C   0  0  0  0  0  0  0  0  0  0  0  0
    0.0000    0.9625    0.0000 C   0  0  0  0  0  0  0  0  0  0  0  0
    0.0000    0.1375    0.0000 C   0  0  0  0  0  0  0  0  0  0  0  0
    0.7145   -0.2750    0.0000 C   0  0  0  0  0  0  0  0  0  0  0  0
    1.4289    0.1375    0.0000 C   0  0  0  0  0  0  0  0  0  0  0  0
    2.1434   -0.2750    0.0000 C   0  0  0  0  0  0  0  0  0  0  0  0
    2.1434   -1.1000    0.0000 O   0  0  0  0  0  0  0  0  0  0  0  0
    3.5724    1.3750    0.0000 C   0  0  0  0  0  0  0  0  0  0  0  0
    4.2868    0.9625    0.0000 C   0  0  0  0  0  0  0  0  0  0  0  0
  1  2  1  0  0  0  0
  2  3  1  0  0  0  0
  4  3  2  0  0  0  0
  5  4  1  0  0  0  0
  5  6  2  0  0  0  0
  6  7  1  0  0  0  0
  7  8  2  0  0  0  0
  7  9  1  0  0  0  0
 10  9  1  0  0  0  0
 11 10  2  0  0  0  0
 12 11  1  0  0  0  0
 13 12  2  0  0  0  0
 14 13  1  0  0  0  0
  9 14  2  0  0  0  0
 14 15  1  0  0  0  0
 15  5  1  0  0  0  0
 15 16  2  0  0  0  0
 17  6  1  0  0  0  0
 18 17  2  0  0  0  0
  3 18  1  0  0  0  0
M  END
> <RowID>
432

> <Original_SMILES>
CCC1=CC2=C(C=C1)C(=O)C1C=CC=CC=1C2=O

> <Canonical_QSARr>
CCC1=CC2=C(C=C1)C(=O)C1C=CC=CC=1C2=O

> <InChI_Code_QSARr>
InChI=1S/C16H12O2/c1-2-10-7-8-13-14(9-10)16(18)12-6-4-3-5-11(12)15(13)17/h3-9H,2H2,1H3

> <InChI Key_QSARr>
SJEBAWHUJDUKQK-UHFFFAOYSA-N

> <Salt_Solvent>


> <Salt_Solvent_ID>
0

> <Number of connected components>
1

$$$$
Molecule_434
  Mrv2316 01072400032D          

 12 11  0  0  0  0            999 V2000
    2.2836    2.1434    0.0000 C   0  0  0  0  0  0  0  0  0  0  0  0
    2.9980    2.5559    0.0000 C   0  0  0  0  0  0  0  0  0  0  0  0
    3.7125    2.1434    0.0000 C   0  0  0  0  0  0  0  0  0  0  0  0
    4.4270    2.5559    0.0000 O   0  0  0  0  0  0  0  0  0  0  0  0
    5.1414    2.1434    0.0000 C   0  0  0  0  0  0  0  0  0  0  0  0
    5.8559    2.5559    0.0000 C   0  0  0  0  0  0  0  0  0  0  0  0
    5.8559    3.3809    0.0000 C   0  0  0  0  0  0  0  0  0  0  0  0
    6.5704    2.1434    0.0000 O   0  0  0  0  0  0  0  0  0  0  0  0
    7.2849    2.5559    0.0000 C   0  0  0  0  0  0  0  0  0  0  0  0
    7.9993    2.1434    0.0000 C   0  0  0  0  0  0  0  0  0  0  0  0
    8.7138    2.5559    0.0000 C   0  0  0  0  0  0  0  0  0  0  0  0
    7.9993    1.3184    0.0000 O   0  0  0  0  0  0  0  0  0  0  0  0
  1  2  1  0  0  0  0
  2  3  1  0  0  0  0
  3  4  1  0  0  0  0
  4  5  1  0  0  0  0
  5  6  1  0  0  0  0
  6  7  1  0  0  0  0
  6  8  1  0  0  0  0
  8  9  1  0  0  0  0
  9 10  1  0  0  0  0
 10 11  1  0  0  0  0
 10 12  1  0  0  0  0
M  END
> <RowID>
434

> <Original_SMILES>
CCCOCC(C)OCC(C)O

> <Canonical_QSARr>
CCCOCC(C)OCC(C)O

> <InChI_Code_QSARr>
InChI=1S/C9H20O3/c1-4-5-11-7-9(3)12-6-8(2)10/h8-10H,4-7H2,1-3H3

> <InChI Key_QSARr>
WEZPLQKRXDBPEP-UHFFFAOYSA-N

> <Salt_Solvent>


> <Salt_Solvent_ID>
0

> <Number of connected components>
1

$$$$
Molecule_435
  Mrv2316 01072400032D          

  4  3  0  0  0  0            999 V2000
    0.8250   -0.0000    0.0000 C   0  0  0  0  0  0  0  0  0  0  0  0
    1.2375    0.7145    0.0000 O   0  0  0  0  0  0  0  0  0  0  0  0
    1.2375   -0.7145    0.0000 O   0  0  0  0  0  0  0  0  0  0  0  0
    0.0000   -0.0000    0.0000 O   0  0  0  0  0  0  0  0  0  0  0  0
  1  2  1  0  0  0  0
  1  3  2  0  0  0  0
  1  4  1  0  0  0  0
M  END
> <RowID>
435

> <Original_SMILES>
[Zn+2].[O-]C([O-])=O

> <Canonical_QSARr>
OC(O)=O

> <InChI_Code_QSARr>
InChI=1S/CH2O3/c2-1(3)4/h(H2,2,3,4)

> <InChI Key_QSARr>
BVKZGUZCCUSVTD-UHFFFAOYSA-N

> <Salt_Solvent>
[Zn+2]

> <Salt_Solvent_ID>
300

> <Number of connected components>
2

$$$$
Molecule_437
  Mrv2316 01072400032D          

 10  9  0  0  0  0            999 V2000
    1.7605    1.8414    0.0000 O   0  0  0  0  0  0  0  0  0  0  0  0
    2.4750    1.4289    0.0000 C   0  0  0  0  0  0  0  0  0  0  0  0
    2.4750    0.6039    0.0000 O   0  0  0  0  0  0  0  0  0  0  0  0
    3.1895    1.8414    0.0000 C   0  0  0  0  0  0  0  0  0  0  0  0
    3.1895    2.6664    0.0000 N   0  0  0  0  0  0  0  0  0  0  0  0
    3.9039    1.4289    0.0000 C   0  0  0  0  0  0  0  0  0  0  0  0
    4.6184    1.8414    0.0000 C   0  0  0  0  0  0  0  0  0  0  0  0
    5.3329    1.4289    0.0000 C   0  0  0  0  0  0  0  0  0  0  0  0
    6.0474    1.8414    0.0000 O   0  0  0  0  0  0  0  0  0  0  0  0
    5.3329    0.6039    0.0000 O   0  0  0  0  0  0  0  0  0  0  0  0
  1  2  1  0  0  0  0
  2  3  2  0  0  0  0
  2  4  1  0  0  0  0
  4  5  1  0  0  0  0
  4  6  1  0  0  0  0
  6  7  1  0  0  0  0
  7  8  1  0  0  0  0
  8  9  2  0  0  0  0
  8 10  1  0  0  0  0
M  END
> <RowID>
437

> <Original_SMILES>
[Na+].NC(CCC(O)=O)C([O-])=O

> <Canonical_QSARr>
NC(CCC(O)=O)C(O)=O

> <InChI_Code_QSARr>
InChI=1S/C5H9NO4/c6-3(5(9)10)1-2-4(7)8/h3H,1-2,6H2,(H,7,8)(H,9,10)

> <InChI Key_QSARr>
WHUUTDBJXJRKMK-UHFFFAOYSA-N

> <Salt_Solvent>
[Na+]

> <Salt_Solvent_ID>
110

> <Number of connected components>
2

$$$$
Molecule_438
  Mrv2316 01072400032D          

 36 37  0  0  0  0            999 V2000
   -2.7742   -3.1551    0.0000 C   0  0  0  0  0  0  0  0  0  0  0  0
   -2.3617   -2.4406    0.0000 C   0  0  0  0  0  0  0  0  0  0  0  0
   -1.9492   -1.7262    0.0000 C   0  0  0  0  0  0  0  0  0  0  0  0
   -3.0762   -2.0281    0.0000 C   0  0  0  0  0  0  0  0  0  0  0  0
   -3.0762   -1.2031    0.0000 S   0  0  0  0  0  0  0  0  0  0  0  0
   -3.7907   -0.7906    0.0000 C   0  0  0  0  0  0  0  0  0  0  0  0
   -2.3617   -0.7906    0.0000 O   0  0  0  0  0  0  0  0  0  0  0  0
   -1.6473   -2.8531    0.0000 N   0  0  0  0  0  0  0  0  0  0  0  0
   -1.6473   -3.6781    0.0000 C   0  0  0  0  0  0  0  0  0  0  0  0
   -2.3617   -4.0906    0.0000 O   0  0  0  0  0  0  0  0  0  0  0  0
   -0.9328   -4.0906    0.0000 C   0  0  0  0  0  0  0  0  0  0  0  0
   -0.9328   -4.9156    0.0000 C   0  0  0  0  0  0  0  0  0  0  0  0
   -0.2183   -5.3281    0.0000 C   0  0  0  0  0  0  0  0  0  0  0  0
    0.4961   -4.9156    0.0000 C   0  0  0  0  0  0  0  0  0  0  0  0
    0.4961   -4.0906    0.0000 C   0  0  0  0  0  0  0  0  0  0  0  0
   -0.2183   -3.6781    0.0000 C   0  0  0  0  0  0  0  0  0  0  0  0
   -0.2183   -2.8531    0.0000 C   0  0  0  0  0  0  0  0  0  0  0  0
   -0.9328   -2.4406    0.0000 O   0  0  0  0  0  0  0  0  0  0  0  0
    0.4961   -2.4406    0.0000 N   0  0  0  0  0  0  0  0  0  0  0  0
    0.4961   -1.6156    0.0000 C   0  0  0  0  0  0  0  0  0  0  0  0
    1.2106   -1.2031    0.0000 C   0  0  0  0  0  0  0  0  0  0  0  0
    1.2106   -0.3781    0.0000 C   0  0  0  0  0  0  0  0  0  0  0  0
    0.4961    0.0344    0.0000 C   0  0  0  0  0  0  0  0  0  0  0  0
    0.4961    0.8594    0.0000 C   0  0  0  0  0  0  0  0  0  0  0  0
    0.4961    1.6844    0.0000 F   0  0  0  0  0  0  0  0  0  0  0  0
   -0.3289    0.8594    0.0000 C   0  0  0  0  0  0  0  0  0  0  0  0
   -1.1539    0.8594    0.0000 F   0  0  0  0  0  0  0  0  0  0  0  0
   -0.3289    1.6844    0.0000 F   0  0  0  0  0  0  0  0  0  0  0  0
   -0.3289    0.0344    0.0000 F   0  0  0  0  0  0  0  0  0  0  0  0
    1.3211    0.8594    0.0000 C   0  0  0  0  0  0  0  0  0  0  0  0
    2.1461    0.8594    0.0000 F   0  0  0  0  0  0  0  0  0  0  0  0
    1.3211    0.0344    0.0000 F   0  0  0  0  0  0  0  0  0  0  0  0
    1.3211    1.6844    0.0000 F   0  0  0  0  0  0  0  0  0  0  0  0
   -0.2183   -0.3781    0.0000 C   0  0  0  0  0  0  0  0  0  0  0  0
   -0.2183   -1.2031    0.0000 C   0  0  0  0  0  0  0  0  0  0  0  0
   -0.9328   -1.6156    0.0000 C   0  0  0  0  0  0  0  0  0  0  0  0
  1  2  1  0  0  0  0
  2  3  1  0  0  0  0
  2  4  1  0  0  0  0
  4  5  1  0  0  0  0
  5  6  1  0  0  0  0
  5  7  2  0  0  0  0
  8  2  1  4  0  0  0
  8  9  2  0  0  0  0
  9 10  1  0  0  0  0
  9 11  1  0  0  0  0
 12 11  2  0  0  0  0
 13 12  1  0  0  0  0
 14 13  2  0  0  0  0
 15 14  1  0  0  0  0
 16 15  2  0  0  0  0
 11 16  1  0  0  0  0
 16 17  1  0  0  0  0
 17 18  2  0  0  0  0
 17 19  1  0  0  0  0
 19 20  1  0  0  0  0
 21 20  2  0  0  0  0
 22 21  1  0  0  0  0
 23 22  2  0  0  0  0
 23 24  1  0  0  0  0
 24 25  1  0  0  0  0
 24 26  1  0  0  0  0
 26 27  1  0  0  0  0
 26 28  1  0  0  0  0
 26 29  1  0  0  0  0
 24 30  1  0  0  0  0
 30 31  1  0  0  0  0
 30 32  1  0  0  0  0
 30 33  1  0  0  0  0
 34 23  1  0  0  0  0
 35 34  2  0  0  0  0
 20 35  1  0  0  0  0
 35 36  1  0  0  0  0
M  END
> <RowID>
438

> <Original_SMILES>
CC(C)(CS(C)=O)N=C(O)C1=CC=CC=C1C(=O)NC1=CC=C(C=C1C)C(F)(C(F)(F)F)C(F)(F)F

> <Canonical_QSARr>
CC(C)(CS(C)=O)N=C(O)C1=CC=CC=C1C(=O)NC1=CC=C(C=C1C)C(F)(C(F)(F)F)C(F)(F)F

> <InChI_Code_QSARr>
InChI=1S/C23H23F7N2O3S/c1-13-11-14(21(24,22(25,26)27)23(28,29)30)9-10-17(13)31-18(33)15-7-5-6-8-16(15)19(34)32-20(2,3)12-36(4)35/h5-11H,12H2,1-4H3,(H,31,33)(H,32,34)

> <InChI Key_QSARr>
BMWUVXGFZUPLIC-UHFFFAOYSA-N

> <Salt_Solvent>


> <Salt_Solvent_ID>
0

> <Number of connected components>
1

$$$$
Molecule_439
  Mrv2316 01072400032D          

 17 18  0  0  0  0            999 V2000
    1.0601    1.8311    0.0000 C   0  0  0  0  0  0  0  0  0  0  0  0
    0.2396    1.7448    0.0000 C   0  0  0  0  0  0  0  0  0  0  0  0
   -0.2453    2.4123    0.0000 C   0  0  0  0  0  0  0  0  0  0  0  0
   -1.0658    2.3260    0.0000 N   0  0  0  0  0  0  0  0  0  0  0  0
   -1.5507    2.9935    0.0000 C   0  0  0  0  0  0  0  0  0  0  0  0
   -1.2958    3.7781    0.0000 C   0  0  0  0  0  0  0  0  0  0  0  0
   -1.9632    4.2630    0.0000 C   0  0  0  0  0  0  0  0  0  0  0  0
   -1.9632    5.0880    0.0000 O   0  0  0  0  0  0  0  0  0  0  0  0
   -2.6307    3.7781    0.0000 C   0  0  0  0  0  0  0  0  0  0  0  0
   -3.4153    4.0330    0.0000 C   0  0  0  0  0  0  0  0  0  0  0  0
   -3.5868    4.8400    0.0000 O   0  0  0  0  0  0  0  0  0  0  0  0
   -2.3757    2.9935    0.0000 O   0  0  0  0  0  0  0  0  0  0  0  0
   -1.4014    1.5724    0.0000 C   0  0  0  0  0  0  0  0  0  0  0  0
   -2.2219    1.4861    0.0000 O   0  0  0  0  0  0  0  0  0  0  0  0
   -0.9165    0.9049    0.0000 N   0  0  0  0  0  0  0  0  0  0  0  0
   -0.0960    0.9912    0.0000 C   0  0  0  0  0  0  0  0  0  0  0  0
    0.3889    0.3237    0.0000 O   0  0  0  0  0  0  0  0  0  0  0  0
  1  2  1  0  0  0  0
  3  2  2  0  0  0  0
  4  3  1  0  0  0  0
  4  5  1  0  0  0  0
  6  5  1  0  0  0  0
  7  6  1  0  0  0  0
  7  8  1  0  0  0  0
  9  7  1  0  0  0  0
  9 10  1  0  0  0  0
 10 11  1  0  0  0  0
 12  9  1  0  0  0  0
  5 12  1  0  0  0  0
 13  4  1  0  0  0  0
 13 14  2  0  0  0  0
 15 13  1  0  0  0  0
 16 15  1  0  0  0  0
  2 16  1  0  0  0  0
 16 17  2  0  0  0  0
M  END
> <RowID>
439

> <Original_SMILES>
CC1=CN(C2CC(O)C(CO)O2)C(=O)NC1=O

> <Canonical_QSARr>
CC1=CN(C2CC(O)C(CO)O2)C(=O)NC1=O

> <InChI_Code_QSARr>
InChI=1S/C10H14N2O5/c1-5-3-12(10(16)11-9(5)15)8-2-6(14)7(4-13)17-8/h3,6-8,13-14H,2,4H2,1H3,(H,11,15,16)

> <InChI Key_QSARr>
IQFYYKKMVGJFEH-UHFFFAOYSA-N

> <Salt_Solvent>


> <Salt_Solvent_ID>
0

> <Number of connected components>
1

$$$$
Molecule_440
  Mrv2316 01072400032D          

 18 19  0  0  0  0            999 V2000
   -1.4289   -0.0000    0.0000 C   0  0  0  0  0  0  0  0  0  0  0  0
   -0.7145   -0.4125    0.0000 O   0  0  0  0  0  0  0  0  0  0  0  0
    0.0000   -0.0000    0.0000 C   0  0  0  0  0  0  0  0  0  0  0  0
    0.0000    0.8250    0.0000 O   0  0  0  0  0  0  0  0  0  0  0  0
    0.7145   -0.4125    0.0000 C   0  0  0  0  0  0  0  0  0  0  0  0
    1.4289    0.0000    0.0000 C   0  0  0  0  0  0  0  0  0  0  0  0
    2.1434   -0.4125    0.0000 C   0  0  0  0  0  0  0  0  0  0  0  0
    2.8579    0.0000    0.0000 C   0  0  0  0  0  0  0  0  0  0  0  0
    3.5724   -0.4125    0.0000 C   0  0  0  0  0  0  0  0  0  0  0  0
    3.5724   -1.2375    0.0000 C   0  0  0  0  0  0  0  0  0  0  0  0
    2.8579   -1.6500    0.0000 C   0  0  0  0  0  0  0  0  0  0  0  0
    2.1434   -1.2375    0.0000 C   0  0  0  0  0  0  0  0  0  0  0  0
    1.4289   -1.6500    0.0000 C   0  0  0  0  0  0  0  0  0  0  0  0
    0.7145   -1.2375    0.0000 C   0  0  0  0  0  0  0  0  0  0  0  0
    4.2868   -1.6500    0.0000 C   0  0  0  0  0  0  0  0  0  0  0  0
    5.0013   -1.2375    0.0000 O   0  0  0  0  0  0  0  0  0  0  0  0
    4.2868   -2.4750    0.0000 O   0  0  0  0  0  0  0  0  0  0  0  0
    5.0013   -2.8875    0.0000 C   0  0  0  0  0  0  0  0  0  0  0  0
  1  2  1  0  0  0  0
  2  3  1  0  0  0  0
  3  4  2  0  0  0  0
  3  5  1  0  0  0  0
  6  5  2  0  0  0  0
  7  6  1  0  0  0  0
  7  8  1  0  0  0  0
  8  9  2  0  0  0  0
  9 10  1  0  0  0  0
 10 11  2  0  0  0  0
 11 12  1  0  0  0  0
 12  7  2  0  0  0  0
 13 12  1  0  0  0  0
 14 13  2  0  0  0  0
  5 14  1  0  0  0  0
 10 15  1  0  0  0  0
 15 16  2  0  0  0  0
 15 17  1  0  0  0  0
 17 18  1  0  0  0  0
M  END
> <RowID>
440

> <Original_SMILES>
COC(=O)C1=CC2C=CC(=CC=2C=C1)C(=O)OC

> <Canonical_QSARr>
COC(=O)C1=CC2C=CC(=CC=2C=C1)C(=O)OC

> <InChI_Code_QSARr>
InChI=1S/C14H12O4/c1-17-13(15)11-5-3-10-8-12(14(16)18-2)6-4-9(10)7-11/h3-8H,1-2H3

> <InChI Key_QSARr>
GYUVMLBYMPKZAZ-UHFFFAOYSA-N

> <Salt_Solvent>


> <Salt_Solvent_ID>
0

> <Number of connected components>
1

$$$$
Molecule_441
  Mrv2316 01072400032D          

 14 13  0  0  0  0            999 V2000
    2.9980    2.5559    0.0000 C   0  0  0  0  0  0  0  0  0  0  0  0
    3.7125    2.1434    0.0000 C   0  0  0  0  0  0  0  0  0  0  0  0
    4.4270    2.5559    0.0000 C   0  0  0  0  0  0  0  0  0  0  0  0
    5.1414    2.1434    0.0000 C   0  0  0  0  0  0  0  0  0  0  0  0
    5.8559    2.5559    0.0000 C   0  0  0  0  0  0  0  0  0  0  0  0
    6.5704    2.1434    0.0000 C   0  0  0  0  0  0  0  0  0  0  0  0
    7.2848    2.5559    0.0000 C   0  0  0  0  0  0  0  0  0  0  0  0
    7.9993    2.1434    0.0000 C   0  0  0  0  0  0  0  0  0  0  0  0
    8.7138    2.5559    0.0000 C   0  0  0  0  0  0  0  0  0  0  0  0
    9.4283    2.1434    0.0000 C   0  0  0  0  0  0  0  0  0  0  0  0
   10.1427    2.5559    0.0000 N   0  3  0  0  0  0  0  0  0  0  0  0
   10.8572    2.9684    0.0000 C   0  0  0  0  0  0  0  0  0  0  0  0
   10.5552    1.8414    0.0000 C   0  0  0  0  0  0  0  0  0  0  0  0
    9.7302    3.2704    0.0000 O   0  5  0  0  0  0  0  0  0  0  0  0
  1  2  1  0  0  0  0
  2  3  1  0  0  0  0
  3  4  1  0  0  0  0
  4  5  1  0  0  0  0
  5  6  1  0  0  0  0
  6  7  1  0  0  0  0
  7  8  1  0  0  0  0
  8  9  1  0  0  0  0
  9 10  1  0  0  0  0
 10 11  1  0  0  0  0
 11 12  1  0  0  0  0
 11 13  1  0  0  0  0
 11 14  1  0  0  0  0
M  CHG  2  11   1  14  -1
M  END
> <RowID>
441

> <Original_SMILES>
CCCCCCCCCC[N+](C)(C)[O-]

> <Canonical_QSARr>
CCCCCCCCCC[N+](C)(C)[O-]

> <InChI_Code_QSARr>
InChI=1S/C12H27NO/c1-4-5-6-7-8-9-10-11-12-13(2,3)14/h4-12H2,1-3H3

> <InChI Key_QSARr>
ZRKZFNZPJKEWPC-UHFFFAOYSA-N

> <Salt_Solvent>


> <Salt_Solvent_ID>
0

> <Number of connected components>
1

$$$$
Molecule_442
  Mrv2316 01072400032D          

 19 21  0  0  0  0            999 V2000
    4.2135    2.9198    0.0000 C   0  0  0  0  0  0  0  0  0  0  0  0
    3.4990    2.5073    0.0000 O   0  0  0  0  0  0  0  0  0  0  0  0
    2.7845    2.9198    0.0000 C   0  0  0  0  0  0  0  0  0  0  0  0
    2.7845    3.7448    0.0000 O   0  0  0  0  0  0  0  0  0  0  0  0
    2.0701    2.5073    0.0000 C   0  0  0  0  0  0  0  0  0  0  0  0
    1.3556    2.9198    0.0000 C   0  0  0  0  0  0  0  0  0  0  0  0
    0.6411    2.5073    0.0000 C   0  0  0  0  0  0  0  0  0  0  0  0
    0.6411    1.6823    0.0000 C   0  0  0  0  0  0  0  0  0  0  0  0
   -0.1435    1.4274    0.0000 C   0  0  0  0  0  0  0  0  0  0  0  0
   -0.6284    2.0948    0.0000 C   0  0  0  0  0  0  0  0  0  0  0  0
   -0.1435    2.7622    0.0000 N   0  0  0  0  0  0  0  0  0  0  0  0
   -0.3984    3.5469    0.0000 C   0  0  0  0  0  0  0  0  0  0  0  0
   -0.3984    0.6427    0.0000 C   0  0  0  0  0  0  0  0  0  0  0  0
   -1.1831    0.3878    0.0000 C   0  0  0  0  0  0  0  0  0  0  0  0
   -1.1831   -0.4372    0.0000 C   0  0  0  0  0  0  0  0  0  0  0  0
   -0.3984   -0.6921    0.0000 C   0  0  0  0  0  0  0  0  0  0  0  0
    0.0865   -0.0247    0.0000 C   0  0  0  0  0  0  0  0  0  0  0  0
    1.3556    1.2698    0.0000 C   0  0  0  0  0  0  0  0  0  0  0  0
    2.0701    1.6823    0.0000 C   0  0  0  0  0  0  0  0  0  0  0  0
  1  2  1  0  0  0  0
  2  3  1  0  0  0  0
  3  4  2  0  0  0  0
  3  5  1  0  0  0  0
  6  5  1  0  0  0  0
  7  6  2  0  0  0  0
  7  8  1  0  0  0  0
  8  9  1  0  0  0  0
  9 10  2  0  0  0  0
 10 11  1  0  0  0  0
 11  7  1  0  0  0  0
 11 12  1  0  0  0  0
  9 13  1  0  0  0  0
 14 13  1  0  0  0  0
 15 14  1  0  0  0  0
 16 15  1  0  0  0  0
 17 16  1  0  0  0  0
 13 17  1  0  0  0  0
 18  8  2  0  0  0  0
 19 18  1  0  0  0  0
  5 19  2  0  0  0  0
M  END
> <RowID>
442

> <Original_SMILES>
COC(=O)C1C=C2C(=CC=1)C(=CN2C)C1CCCC1

> <Canonical_QSARr>
COC(=O)C1C=C2C(=CC=1)C(=CN2C)C1CCCC1

> <InChI_Code_QSARr>
InChI=1S/C16H19NO2/c1-17-10-14(11-5-3-4-6-11)13-8-7-12(9-15(13)17)16(18)19-2/h7-11H,3-6H2,1-2H3

> <InChI Key_QSARr>
VGKAMBRJOFZVFY-UHFFFAOYSA-N

> <Salt_Solvent>


> <Salt_Solvent_ID>
0

> <Number of connected components>
1

$$$$
Molecule_443
  Mrv2316 01072400032D          

 25 27  0  0  0  0            999 V2000
    2.5600    1.4729    0.0000 C   0  0  0  0  0  0  0  0  0  0  0  0
    1.9469    0.9209    0.0000 C   0  0  0  0  0  0  0  0  0  0  0  0
    2.5600    0.3688    0.0000 C   0  0  0  0  0  0  0  0  0  0  0  0
    1.4620    1.5883    0.0000 S   0  0  0  0  0  0  0  0  0  0  0  0
    0.6774    1.3334    0.0000 C   0  0  0  0  0  0  0  0  0  0  0  0
   -0.1476    1.3334    0.0000 C   0  0  0  0  0  0  0  0  0  0  0  0
   -0.7310    1.9167    0.0000 N   0  0  0  0  0  0  0  0  0  0  0  0
   -1.5279    1.7032    0.0000 C   0  0  0  0  0  0  0  0  0  0  0  0
   -1.7414    0.9063    0.0000 O   0  0  0  0  0  0  0  0  0  0  0  0
   -2.1113    2.2866    0.0000 C   0  0  0  0  0  0  0  0  0  0  0  0
   -1.8977    3.0835    0.0000 N   0  0  0  0  0  0  0  0  0  0  0  0
   -2.9082    2.0730    0.0000 C   0  0  0  0  0  0  0  0  0  0  0  0
   -3.4915    2.6564    0.0000 C   0  0  0  0  0  0  0  0  0  0  0  0
   -4.2884    2.4429    0.0000 C   0  0  0  0  0  0  0  0  0  0  0  0
   -4.5019    1.6460    0.0000 C   0  0  0  0  0  0  0  0  0  0  0  0
   -5.2988    1.4325    0.0000 O   0  0  0  0  0  0  0  0  0  0  0  0
   -3.9186    1.0626    0.0000 C   0  0  0  0  0  0  0  0  0  0  0  0
   -3.1217    1.2762    0.0000 C   0  0  0  0  0  0  0  0  0  0  0  0
   -0.1476    0.5084    0.0000 C   0  0  0  0  0  0  0  0  0  0  0  0
   -0.7310   -0.0750    0.0000 O   0  0  0  0  0  0  0  0  0  0  0  0
    0.6774    0.5084    0.0000 N   0  0  0  0  0  0  0  0  0  0  0  0
    1.4620    0.2534    0.0000 C   0  0  0  0  0  0  0  0  0  0  0  0
    1.7169   -0.5312    0.0000 C   0  0  0  0  0  0  0  0  0  0  0  0
    2.5239   -0.7027    0.0000 O   0  0  0  0  0  0  0  0  0  0  0  0
    1.1649   -1.1443    0.0000 O   0  0  0  0  0  0  0  0  0  0  0  0
  1  2  1  0  0  0  0
  2  3  1  0  0  0  0
  4  2  1  0  0  0  0
  5  4  1  0  0  0  0
  5  6  1  0  0  0  0
  6  7  1  0  0  0  0
  7  8  1  0  0  0  0
  8  9  2  0  0  0  0
  8 10  1  0  0  0  0
 10 11  1  0  0  0  0
 10 12  1  0  0  0  0
 13 12  1  0  0  0  0
 14 13  2  0  0  0  0
 15 14  1  0  0  0  0
 15 16  1  0  0  0  0
 17 15  2  0  0  0  0
 18 17  1  0  0  0  0
 12 18  2  0  0  0  0
  6 19  1  0  0  0  0
 19 20  2  0  0  0  0
 19 21  1  0  0  0  0
 21  5  1  0  0  0  0
 22 21  1  0  0  0  0
  2 22  1  0  0  0  0
 22 23  1  0  0  0  0
 23 24  1  0  0  0  0
 23 25  2  0  0  0  0
M  END
> <RowID>
443

> <Original_SMILES>
CC1(C)SC2C(NC(=O)C(N)C3C=CC(O)=CC=3)C(=O)N2C1C(O)=O

> <Canonical_QSARr>
CC1(C)SC2C(NC(=O)C(N)C3C=CC(O)=CC=3)C(=O)N2C1C(O)=O

> <InChI_Code_QSARr>
InChI=1S/C16H19N3O5S/c1-16(2)11(15(23)24)19-13(22)10(14(19)25-16)18-12(21)9(17)7-3-5-8(20)6-4-7/h3-6,9-11,14,20H,17H2,1-2H3,(H,18,21)(H,23,24)

> <InChI Key_QSARr>
LSQZJLSUYDQPKJ-UHFFFAOYSA-N

> <Salt_Solvent>


> <Salt_Solvent_ID>
0

> <Number of connected components>
1

$$$$
Molecule_444
  Mrv2316 01072400032D          

 17 17  0  0  0  0            999 V2000
   -0.0918    1.7605    0.0000 C   0  0  0  0  0  0  0  0  0  0  0  0
   -0.5043    2.4750    0.0000 N   0  3  0  0  0  0  0  0  0  0  0  0
    0.2101    2.8875    0.0000 C   0  0  0  0  0  0  0  0  0  0  0  0
    0.2101    3.7125    0.0000 C   0  0  0  0  0  0  0  0  0  0  0  0
    0.9246    4.1250    0.0000 O   0  0  0  0  0  0  0  0  0  0  0  0
    0.9246    4.9500    0.0000 C   0  0  0  0  0  0  0  0  0  0  0  0
    1.6391    5.3625    0.0000 C   0  0  0  0  0  0  0  0  0  0  0  0
    1.6391    6.1875    0.0000 C   0  0  0  0  0  0  0  0  0  0  0  0
    0.2101    5.3625    0.0000 O   0  0  0  0  0  0  0  0  0  0  0  0
   -1.2188    2.0625    0.0000 C   0  0  0  0  0  0  0  0  0  0  0  0
   -1.2188    1.2375    0.0000 C   0  0  0  0  0  0  0  0  0  0  0  0
   -1.9333    0.8250    0.0000 C   0  0  0  0  0  0  0  0  0  0  0  0
   -1.9333    0.0000    0.0000 C   0  0  0  0  0  0  0  0  0  0  0  0
   -1.2188   -0.4125    0.0000 C   0  0  0  0  0  0  0  0  0  0  0  0
   -0.5043    0.0000    0.0000 C   0  0  0  0  0  0  0  0  0  0  0  0
   -0.5043    0.8250    0.0000 C   0  0  0  0  0  0  0  0  0  0  0  0
   -0.9168    3.1895    0.0000 C   0  0  0  0  0  0  0  0  0  0  0  0
  1  2  1  0  0  0  0
  2  3  1  0  0  0  0
  3  4  1  0  0  0  0
  4  5  1  0  0  0  0
  5  6  1  0  0  0  0
  6  7  1  0  0  0  0
  7  8  2  0  0  0  0
  6  9  2  0  0  0  0
  2 10  1  0  0  0  0
 10 11  1  0  0  0  0
 12 11  2  0  0  0  0
 13 12  1  0  0  0  0
 14 13  2  0  0  0  0
 15 14  1  0  0  0  0
 16 15  2  0  0  0  0
 11 16  1  0  0  0  0
  2 17  1  0  0  0  0
M  CHG  1   2   1
M  END
> <RowID>
444

> <Original_SMILES>
[Cl-].C[N+](C)(CC1C=CC=CC=1)CCOC(=O)C=C

> <Canonical_QSARr>
C[N+](C)(CC1C=CC=CC=1)CCOC(=O)C=C

> <InChI_Code_QSARr>
InChI=1S/C14H20NO2/c1-4-14(16)17-11-10-15(2,3)12-13-8-6-5-7-9-13/h4-9H,1,10-12H2,2-3H3/q+1

> <InChI Key_QSARr>
CQLNQGQDXMGDBC-UHFFFAOYSA-N

> <Salt_Solvent>
[Cl-]

> <Salt_Solvent_ID>
170

> <Number of connected components>
2

$$$$
Molecule_445
  Mrv2316 01072400032D          

 30 33  0  0  0  0            999 V2000
    0.7846   -0.2549    0.0000 N   0  0  0  0  0  0  0  0  0  0  0  0
    1.2695    0.4125    0.0000 C   0  0  0  0  0  0  0  0  0  0  0  0
    1.0146    1.1971    0.0000 O   0  0  0  0  0  0  0  0  0  0  0  0
    2.0542    0.1576    0.0000 C   0  0  0  0  0  0  0  0  0  0  0  0
    2.8388    0.4125    0.0000 C   0  0  0  0  0  0  0  0  0  0  0  0
    3.0937    1.1971    0.0000 C   0  0  0  0  0  0  0  0  0  0  0  0
    3.9007    1.3686    0.0000 C   0  0  0  0  0  0  0  0  0  0  0  0
    4.1556    2.1533    0.0000 C   0  0  0  0  0  0  0  0  0  0  0  0
    3.6036    2.7664    0.0000 C   0  0  0  0  0  0  0  0  0  0  0  0
    3.8585    3.5510    0.0000 C   0  0  0  0  0  0  0  0  0  0  0  0
    4.1135    4.3356    0.0000 C   0  0  0  0  0  0  0  0  0  0  0  0
    3.0739    3.8059    0.0000 C   0  0  0  0  0  0  0  0  0  0  0  0
    4.6432    3.2960    0.0000 C   0  0  0  0  0  0  0  0  0  0  0  0
    2.7966    2.5948    0.0000 C   0  0  0  0  0  0  0  0  0  0  0  0
    2.5417    1.8102    0.0000 C   0  0  0  0  0  0  0  0  0  0  0  0
    3.3237   -0.2549    0.0000 N   0  0  0  0  0  0  0  0  0  0  0  0
    2.8388   -0.9224    0.0000 C   0  0  0  0  0  0  0  0  0  0  0  0
    3.0937   -1.7070    0.0000 O   0  0  0  0  0  0  0  0  0  0  0  0
    2.0542   -0.6674    0.0000 C   0  0  0  0  0  0  0  0  0  0  0  0
    1.2695   -0.9224    0.0000 C   0  0  0  0  0  0  0  0  0  0  0  0
    1.0146   -1.7070    0.0000 C   0  0  0  0  0  0  0  0  0  0  0  0
    0.2076   -1.8785    0.0000 C   0  0  0  0  0  0  0  0  0  0  0  0
   -0.0473   -2.6632    0.0000 C   0  0  0  0  0  0  0  0  0  0  0  0
    0.5047   -3.2763    0.0000 C   0  0  0  0  0  0  0  0  0  0  0  0
    0.2498   -4.0609    0.0000 C   0  0  0  0  0  0  0  0  0  0  0  0
   -0.0052   -4.8455    0.0000 C   0  0  0  0  0  0  0  0  0  0  0  0
   -0.5348   -3.8059    0.0000 C   0  0  0  0  0  0  0  0  0  0  0  0
    1.0344   -4.3158    0.0000 C   0  0  0  0  0  0  0  0  0  0  0  0
    1.3117   -3.1047    0.0000 C   0  0  0  0  0  0  0  0  0  0  0  0
    1.5666   -2.3201    0.0000 C   0  0  0  0  0  0  0  0  0  0  0  0
  2  1  1  0  0  0  0
  2  3  2  0  0  0  0
  4  2  1  0  0  0  0
  4  5  2  0  0  0  0
  5  6  1  0  0  0  0
  7  6  1  0  0  0  0
  8  7  2  0  0  0  0
  9  8  1  0  0  0  0
  9 10  1  0  0  0  0
 10 11  1  0  0  0  0
 10 12  1  0  0  0  0
 10 13  1  0  0  0  0
 14  9  2  0  0  0  0
 15 14  1  0  0  0  0
  6 15  2  0  0  0  0
  5 16  1  0  0  0  0
 16 17  1  0  0  0  0
 17 18  2  0  0  0  0
 17 19  1  0  0  0  0
 19  4  1  0  0  0  0
 20 19  1  0  0  0  0
  1 20  2  0  0  0  0
 20 21  1  0  0  0  0
 22 21  1  0  0  0  0
 23 22  2  0  0  0  0
 24 23  1  0  0  0  0
 24 25  1  0  0  0  0
 25 26  1  0  0  0  0
 25 27  1  0  0  0  0
 25 28  1  0  0  0  0
 29 24  2  0  0  0  0
 30 29  1  0  0  0  0
 21 30  2  0  0  0  0
M  END
> <RowID>
445

> <Original_SMILES>
CC(C)(C)C1C=CC(=CC=1)C1NC(=O)C2C=1C(=O)NC=2C1C=CC(=CC=1)C(C)(C)C

> <Canonical_QSARr>
CC(C)(C)C1C=CC(=CC=1)C1=NC(=O)C2C1C(=O)NC=2C1C=CC(=CC=1)C(C)(C)C

> <InChI_Code_QSARr>
InChI=1S/C26H28N2O2/c1-25(2,3)17-11-7-15(8-12-17)21-19-20(24(30)27-21)22(28-23(19)29)16-9-13-18(14-10-16)26(4,5)6/h7-14,19H,1-6H3,(H,28,29)

> <InChI Key_QSARr>
LHAZTPPNIKFJSJ-UHFFFAOYSA-N

> <Salt_Solvent>


> <Salt_Solvent_ID>
0

> <Number of connected components>
1

$$$$
Molecule_446
  Mrv2316 01072400032D          

 16 16  0  0  0  0            999 V2000
   -2.1434    0.0000    0.0000 C   0  0  0  0  0  0  0  0  0  0  0  0
   -1.4289    0.4125    0.0000 C   0  0  0  0  0  0  0  0  0  0  0  0
   -1.4289    1.2375    0.0000 O   0  0  0  0  0  0  0  0  0  0  0  0
   -0.7145   -0.0000    0.0000 C   0  0  0  0  0  0  0  0  0  0  0  0
    0.0000    0.4125    0.0000 C   0  0  0  0  0  0  0  0  0  0  0  0
    0.0000    1.2375    0.0000 O   0  0  0  0  0  0  0  0  0  0  0  0
    0.7145   -0.0000    0.0000 N   0  0  0  0  0  0  0  0  0  0  0  0
    0.7145   -0.8250    0.0000 C   0  0  0  0  0  0  0  0  0  0  0  0
    0.0000   -1.2375    0.0000 C   0  0  0  0  0  0  0  0  0  0  0  0
    0.0000   -2.0625    0.0000 C   0  0  0  0  0  0  0  0  0  0  0  0
   -0.7145   -2.4750    0.0000 Cl  0  0  0  0  0  0  0  0  0  0  0  0
    0.7145   -2.4750    0.0000 C   0  0  0  0  0  0  0  0  0  0  0  0
    1.4289   -2.0625    0.0000 C   0  0  0  0  0  0  0  0  0  0  0  0
    1.4289   -1.2375    0.0000 C   0  0  0  0  0  0  0  0  0  0  0  0
    2.1434   -0.8250    0.0000 O   0  0  0  0  0  0  0  0  0  0  0  0
    2.1434   -0.0000    0.0000 C   0  0  0  0  0  0  0  0  0  0  0  0
  1  2  1  0  0  0  0
  2  3  2  0  0  0  0
  2  4  1  0  0  0  0
  4  5  1  0  0  0  0
  5  6  2  0  0  0  0
  5  7  1  0  0  0  0
  7  8  1  0  0  0  0
  9  8  2  0  0  0  0
 10  9  1  0  0  0  0
 10 11  1  0  0  0  0
 12 10  2  0  0  0  0
 13 12  1  0  0  0  0
 14 13  2  0  0  0  0
  8 14  1  0  0  0  0
 14 15  1  0  0  0  0
 15 16  1  0  0  0  0
M  END
> <RowID>
446

> <Original_SMILES>
CC(=O)CC(=O)NC1=CC(Cl)=CC=C1OC

> <Canonical_QSARr>
CC(=O)CC(=O)NC1=CC(Cl)=CC=C1OC

> <InChI_Code_QSARr>
InChI=1S/C11H12ClNO3/c1-7(14)5-11(15)13-9-6-8(12)3-4-10(9)16-2/h3-4,6H,5H2,1-2H3,(H,13,15)

> <InChI Key_QSARr>
HSGGSKCDDPPKMD-UHFFFAOYSA-N

> <Salt_Solvent>


> <Salt_Solvent_ID>
0

> <Number of connected components>
1

$$$$
Molecule_447
  Mrv2316 01072400032D          

  6  6  0  0  0  0            999 V2000
    1.4289    0.8250    0.0000 C   0  0  0  0  0  0  0  0  0  0  0  0
    0.7145    1.2375    0.0000 C   0  0  0  0  0  0  0  0  0  0  0  0
   -0.0000    0.8250    0.0000 C   0  0  0  0  0  0  0  0  0  0  0  0
   -0.0000    0.0000    0.0000 C   0  0  0  0  0  0  0  0  0  0  0  0
    0.7145   -0.4125    0.0000 C   0  0  0  0  0  0  0  0  0  0  0  0
    1.4289   -0.0000    0.0000 C   0  0  0  0  0  0  0  0  0  0  0  0
  2  1  1  0  0  0  0
  3  2  1  0  0  0  0
  4  3  1  0  0  0  0
  5  4  1  0  0  0  0
  6  5  2  0  0  0  0
  1  6  1  0  0  0  0
M  END
> <RowID>
447

> <Original_SMILES>
C1CCCC=C1

> <Canonical_QSARr>
C1CCCC=C1

> <InChI_Code_QSARr>
InChI=1S/C6H10/c1-2-4-6-5-3-1/h1-2H,3-6H2

> <InChI Key_QSARr>
HGCIXCUEYOPUTN-UHFFFAOYSA-N

> <Salt_Solvent>


> <Salt_Solvent_ID>
0

> <Number of connected components>
1

$$$$
Molecule_449
  Mrv2316 01072400032D          

 21 23  0  0  0  0            999 V2000
   -3.0587   -2.8413    0.0000 O   0  0  0  0  0  0  0  0  0  0  0  0
   -2.6462   -2.1269    0.0000 C   0  0  0  0  0  0  0  0  0  0  0  0
   -1.8212   -2.1269    0.0000 C   0  0  0  0  0  0  0  0  0  0  0  0
   -1.4087   -1.4124    0.0000 C   0  0  0  0  0  0  0  0  0  0  0  0
   -0.5837   -1.4124    0.0000 C   0  0  0  0  0  0  0  0  0  0  0  0
   -0.1712   -0.6979    0.0000 C   0  0  0  0  0  0  0  0  0  0  0  0
    0.6538   -0.6979    0.0000 N   0  0  0  0  0  0  0  0  0  0  0  0
    1.1387   -0.0305    0.0000 C   0  0  0  0  0  0  0  0  0  0  0  0
    0.8838    0.7541    0.0000 O   0  0  0  0  0  0  0  0  0  0  0  0
    1.9233   -0.2854    0.0000 C   0  0  0  0  0  0  0  0  0  0  0  0
    2.6378    0.1271    0.0000 C   0  0  0  0  0  0  0  0  0  0  0  0
    3.3523   -0.2854    0.0000 C   0  0  0  0  0  0  0  0  0  0  0  0
    3.3523   -1.1104    0.0000 C   0  0  0  0  0  0  0  0  0  0  0  0
    2.6378   -1.5229    0.0000 C   0  0  0  0  0  0  0  0  0  0  0  0
    1.9233   -1.1104    0.0000 C   0  0  0  0  0  0  0  0  0  0  0  0
    1.1387   -1.3654    0.0000 C   0  0  0  0  0  0  0  0  0  0  0  0
    0.8838   -2.1500    0.0000 O   0  0  0  0  0  0  0  0  0  0  0  0
   -1.8212   -0.6979    0.0000 O   0  0  0  0  0  0  0  0  0  0  0  0
   -2.6462   -0.6979    0.0000 C   0  0  0  0  0  0  0  0  0  0  0  0
   -3.0587    0.0165    0.0000 O   0  0  0  0  0  0  0  0  0  0  0  0
   -3.0587   -1.4124    0.0000 C   0  0  0  0  0  0  0  0  0  0  0  0
  1  2  1  0  0  0  0
  3  2  1  0  0  0  0
  4  3  1  0  0  0  0
  4  5  1  0  0  0  0
  5  6  1  0  0  0  0
  6  7  1  0  0  0  0
  8  7  1  0  0  0  0
  8  9  2  0  0  0  0
 10  8  1  0  0  0  0
 10 11  2  0  0  0  0
 11 12  1  0  0  0  0
 12 13  2  0  0  0  0
 13 14  1  0  0  0  0
 14 15  2  0  0  0  0
 15 10  1  0  0  0  0
 16 15  1  0  0  0  0
  7 16  1  0  0  0  0
 16 17  2  0  0  0  0
 18  4  1  0  0  0  0
 19 18  1  0  0  0  0
 19 20  1  0  0  0  0
 21 19  1  0  0  0  0
  2 21  1  0  0  0  0
M  END
> <RowID>
449

> <Original_SMILES>
OC1CC(CCN2C(=O)C3=CC=CC=C3C2=O)OC(O)C1

> <Canonical_QSARr>
OC1CC(CCN2C(=O)C3=CC=CC=C3C2=O)OC(O)C1

> <InChI_Code_QSARr>
InChI=1S/C15H17NO5/c17-9-7-10(21-13(18)8-9)5-6-16-14(19)11-3-1-2-4-12(11)15(16)20/h1-4,9-10,13,17-18H,5-8H2

> <InChI Key_QSARr>
IQEXBIDWHNIJHJ-UHFFFAOYSA-N

> <Salt_Solvent>


> <Salt_Solvent_ID>
0

> <Number of connected components>
1

$$$$
Molecule_450
  Mrv2316 01072400032D          

 19 18  0  0  0  0            999 V2000
    7.2336    5.0013    0.0000 C   0  0  0  0  0  0  0  0  0  0  0  0
    7.9481    5.4138    0.0000 C   0  0  0  0  0  0  0  0  0  0  0  0
    8.6625    5.0013    0.0000 C   0  0  0  0  0  0  0  0  0  0  0  0
    9.3770    5.4138    0.0000 C   0  0  0  0  0  0  0  0  0  0  0  0
   10.0915    5.0013    0.0000 C   0  0  0  0  0  0  0  0  0  0  0  0
   10.8059    5.4138    0.0000 C   0  0  0  0  0  0  0  0  0  0  0  0
   11.5204    5.0013    0.0000 C   0  0  0  0  0  0  0  0  0  0  0  0
   12.2349    5.4138    0.0000 C   0  0  0  0  0  0  0  0  0  0  0  0
   12.9494    5.0013    0.0000 C   0  0  0  0  0  0  0  0  0  0  0  0
   13.6638    5.4138    0.0000 C   0  0  0  0  0  0  0  0  0  0  0  0
   14.3783    5.0013    0.0000 C   0  0  0  0  0  0  0  0  0  0  0  0
   15.0928    5.4138    0.0000 C   0  0  0  0  0  0  0  0  0  0  0  0
   15.8072    5.0013    0.0000 C   0  0  0  0  0  0  0  0  0  0  0  0
   16.5217    5.4138    0.0000 C   0  0  0  0  0  0  0  0  0  0  0  0
   17.2362    5.0013    0.0000 C   0  0  0  0  0  0  0  0  0  0  0  0
   17.9507    5.4138    0.0000 C   0  0  0  0  0  0  0  0  0  0  0  0
   18.6651    5.0013    0.0000 N   0  0  0  0  0  0  0  0  0  0  0  0
   19.3796    5.4138    0.0000 C   0  0  0  0  0  0  0  0  0  0  0  0
   18.6651    4.1763    0.0000 C   0  0  0  0  0  0  0  0  0  0  0  0
  1  2  1  0  0  0  0
  2  3  1  0  0  0  0
  3  4  1  0  0  0  0
  4  5  1  0  0  0  0
  5  6  1  0  0  0  0
  6  7  1  0  0  0  0
  7  8  1  0  0  0  0
  8  9  1  0  0  0  0
  9 10  1  0  0  0  0
 10 11  1  0  0  0  0
 11 12  1  0  0  0  0
 12 13  1  0  0  0  0
 13 14  1  0  0  0  0
 14 15  1  0  0  0  0
 15 16  1  0  0  0  0
 16 17  1  0  0  0  0
 17 18  1  0  0  0  0
 17 19  1  0  0  0  0
M  END
> <RowID>
450

> <Original_SMILES>
CCCCCCCCCCCCCCCCN(C)C

> <Canonical_QSARr>
CCCCCCCCCCCCCCCCN(C)C

> <InChI_Code_QSARr>
InChI=1S/C18H39N/c1-4-5-6-7-8-9-10-11-12-13-14-15-16-17-18-19(2)3/h4-18H2,1-3H3

> <InChI Key_QSARr>
NHLUVTZJQOJKCC-UHFFFAOYSA-N

> <Salt_Solvent>


> <Salt_Solvent_ID>
0

> <Number of connected components>
1

$$$$
Molecule_451
  Mrv2316 01072400032D          

 13 13  0  0  0  0            999 V2000
    0.0000   -3.8077    0.0000 F   0  0  0  0  0  0  0  0  0  0  0  0
    0.7145   -3.3952    0.0000 C   0  0  0  0  0  0  0  0  0  0  0  0
    0.7145   -2.5702    0.0000 F   0  0  0  0  0  0  0  0  0  0  0  0
    1.4289   -3.8077    0.0000 C   0  0  0  0  0  0  0  0  0  0  0  0
    2.1434   -3.3952    0.0000 N   0  0  0  0  0  0  0  0  0  0  0  0
    2.8579   -3.8077    0.0000 C   0  0  0  0  0  0  0  0  0  0  0  0
    3.5724   -3.3952    0.0000 C   0  0  0  0  0  0  0  0  0  0  0  0
    4.2868   -3.8077    0.0000 C   0  0  0  0  0  0  0  0  0  0  0  0
    5.0013   -3.3952    0.0000 N   0  0  0  0  0  0  0  0  0  0  0  0
    5.0013   -2.5702    0.0000 C   0  0  0  0  0  0  0  0  0  0  0  0
    5.7158   -2.1577    0.0000 Cl  0  0  0  0  0  0  0  0  0  0  0  0
    4.2868   -2.1577    0.0000 C   0  0  0  0  0  0  0  0  0  0  0  0
    3.5724   -2.5702    0.0000 C   0  0  0  0  0  0  0  0  0  0  0  0
  1  2  1  0  0  0  0
  2  3  1  0  0  0  0
  2  4  1  0  0  0  0
  4  5  1  0  0  0  0
  5  6  1  0  0  0  0
  6  7  1  0  0  0  0
  8  7  1  0  0  0  0
  9  8  2  0  0  0  0
 10  9  1  0  0  0  0
 10 11  1  0  0  0  0
 12 10  2  0  0  0  0
 13 12  1  0  0  0  0
  7 13  2  0  0  0  0
M  END
> <RowID>
451

> <Original_SMILES>
FC(F)CNCC1C=NC(Cl)=CC=1

> <Canonical_QSARr>
FC(F)CNCC1C=NC(Cl)=CC=1

> <InChI_Code_QSARr>
InChI=1S/C8H9ClF2N2/c9-7-2-1-6(4-13-7)3-12-5-8(10)11/h1-2,4,8,12H,3,5H2

> <InChI Key_QSARr>
QDQGMLOVCICKPV-UHFFFAOYSA-N

> <Salt_Solvent>


> <Salt_Solvent_ID>
0

> <Number of connected components>
1

$$$$
Molecule_452
  Mrv2316 01072400032D          

 26 27  0  0  0  0            999 V2000
    2.5556   -2.6813    0.0000 C   0  0  0  0  0  0  0  0  0  0  0  0
    1.8411   -2.2688    0.0000 C   0  0  0  0  0  0  0  0  0  0  0  0
    2.2536   -1.5543    0.0000 C   0  0  0  0  0  0  0  0  0  0  0  0
    1.4286   -2.9832    0.0000 C   0  0  0  0  0  0  0  0  0  0  0  0
    1.1267   -1.8563    0.0000 C   0  0  0  0  0  0  0  0  0  0  0  0
    1.1267   -1.0312    0.0000 C   0  0  0  0  0  0  0  0  0  0  0  0
    0.4122   -0.6187    0.0000 C   0  0  0  0  0  0  0  0  0  0  0  0
    0.4122    0.2063    0.0000 O   0  0  0  0  0  0  0  0  0  0  0  0
   -0.3023    0.6188    0.0000 C   0  0  0  0  0  0  0  0  0  0  0  0
   -0.3023   -1.0312    0.0000 C   0  0  0  0  0  0  0  0  0  0  0  0
   -0.3023   -1.8562    0.0000 C   0  0  0  0  0  0  0  0  0  0  0  0
   -1.0167   -2.2687    0.0000 C   0  0  0  0  0  0  0  0  0  0  0  0
   -1.7312   -1.8562    0.0000 C   0  0  0  0  0  0  0  0  0  0  0  0
   -2.4457   -2.2688    0.0000 C   0  0  0  0  0  0  0  0  0  0  0  0
   -3.1602   -1.8563    0.0000 O   0  0  0  0  0  0  0  0  0  0  0  0
   -3.8746   -2.2688    0.0000 C   0  0  0  0  0  0  0  0  0  0  0  0
   -2.4457   -3.0938    0.0000 C   0  0  0  0  0  0  0  0  0  0  0  0
   -1.7312   -3.5062    0.0000 C   0  0  0  0  0  0  0  0  0  0  0  0
   -1.7312   -4.3313    0.0000 C   0  0  0  0  0  0  0  0  0  0  0  0
   -1.7312   -5.1563    0.0000 C   0  0  0  0  0  0  0  0  0  0  0  0
   -0.9062   -4.3312    0.0000 C   0  0  0  0  0  0  0  0  0  0  0  0
   -2.5562   -4.3313    0.0000 C   0  0  0  0  0  0  0  0  0  0  0  0
   -1.0167   -3.0938    0.0000 C   0  0  0  0  0  0  0  0  0  0  0  0
   -0.3023   -3.5062    0.0000 O   0  0  0  0  0  0  0  0  0  0  0  0
    0.4122   -2.2687    0.0000 C   0  0  0  0  0  0  0  0  0  0  0  0
    0.4122   -3.0938    0.0000 O   0  0  0  0  0  0  0  0  0  0  0  0
  1  2  1  0  0  0  0
  2  3  1  0  0  0  0
  2  4  1  0  0  0  0
  2  5  1  0  0  0  0
  6  5  2  0  0  0  0
  7  6  1  0  0  0  0
  7  8  1  0  0  0  0
  8  9  1  0  0  0  0
 10  7  2  0  0  0  0
 11 10  1  0  0  0  0
 11 12  1  0  0  0  0
 13 12  1  0  0  0  0
 14 13  2  0  0  0  0
 14 15  1  0  0  0  0
 15 16  1  0  0  0  0
 17 14  1  0  0  0  0
 18 17  2  0  0  0  0
 18 19  1  0  0  0  0
 19 20  1  0  0  0  0
 19 21  1  0  0  0  0
 19 22  1  0  0  0  0
 23 18  1  0  0  0  0
 12 23  2  0  0  0  0
 23 24  1  0  0  0  0
 25 11  2  0  0  0  0
  5 25  1  0  0  0  0
 25 26  1  0  0  0  0
M  END
> <RowID>
452

> <Original_SMILES>
CC(C)(C)C1=CC(=CC(C2C=C(C=C(C=2O)C(C)(C)C)OC)=C1O)OC

> <Canonical_QSARr>
CC(C)(C)C1=CC(=CC(C2C=C(C=C(C=2O)C(C)(C)C)OC)=C1O)OC

> <InChI_Code_QSARr>
InChI=1S/C22H30O4/c1-21(2,3)17-11-13(25-7)9-15(19(17)23)16-10-14(26-8)12-18(20(16)24)22(4,5)6/h9-12,23-24H,1-8H3

> <InChI Key_QSARr>
CBYWHFTZNVZQHV-UHFFFAOYSA-N

> <Salt_Solvent>


> <Salt_Solvent_ID>
0

> <Number of connected components>
1

$$$$
Molecule_454
  Mrv2316 01072400032D          

 29 33  0  0  0  0            999 V2000
    0.7846   -0.2549    0.0000 N   0  0  0  0  0  0  0  0  0  0  0  0
    1.2695    0.4125    0.0000 C   0  0  0  0  0  0  0  0  0  0  0  0
    1.0146    1.1971    0.0000 O   0  0  0  0  0  0  0  0  0  0  0  0
    2.0542    0.1576    0.0000 C   0  0  0  0  0  0  0  0  0  0  0  0
    2.8388    0.4125    0.0000 C   0  0  0  0  0  0  0  0  0  0  0  0
    3.3237   -0.2549    0.0000 N   0  0  0  0  0  0  0  0  0  0  0  0
    2.8388   -0.9224    0.0000 C   0  0  0  0  0  0  0  0  0  0  0  0
    3.0937   -1.7070    0.0000 O   0  0  0  0  0  0  0  0  0  0  0  0
    2.0542   -0.6674    0.0000 C   0  0  0  0  0  0  0  0  0  0  0  0
    1.2695   -0.9224    0.0000 C   0  0  0  0  0  0  0  0  0  0  0  0
    1.0146   -1.7070    0.0000 C   0  0  0  0  0  0  0  0  0  0  0  0
    0.2076   -1.8785    0.0000 C   0  0  0  0  0  0  0  0  0  0  0  0
   -0.0473   -2.6631    0.0000 C   0  0  0  0  0  0  0  0  0  0  0  0
    0.5047   -3.2762    0.0000 C   0  0  0  0  0  0  0  0  0  0  0  0
    0.2498   -4.0609    0.0000 Cl  0  0  0  0  0  0  0  0  0  0  0  0
    1.3117   -3.1047    0.0000 C   0  0  0  0  0  0  0  0  0  0  0  0
    1.5666   -2.3201    0.0000 C   0  0  0  0  0  0  0  0  0  0  0  0
    3.0937    1.1971    0.0000 C   0  0  0  0  0  0  0  0  0  0  0  0
    3.9007    1.3687    0.0000 C   0  0  0  0  0  0  0  0  0  0  0  0
    4.1556    2.1533    0.0000 C   0  0  0  0  0  0  0  0  0  0  0  0
    3.6036    2.7664    0.0000 C   0  0  0  0  0  0  0  0  0  0  0  0
    3.8585    3.5510    0.0000 C   0  0  0  0  0  0  0  0  0  0  0  0
    4.6655    3.7225    0.0000 C   0  0  0  0  0  0  0  0  0  0  0  0
    4.9204    4.5071    0.0000 C   0  0  0  0  0  0  0  0  0  0  0  0
    4.3684    5.1202    0.0000 C   0  0  0  0  0  0  0  0  0  0  0  0
    3.5614    4.9487    0.0000 C   0  0  0  0  0  0  0  0  0  0  0  0
    3.3065    4.1641    0.0000 C   0  0  0  0  0  0  0  0  0  0  0  0
    2.7966    2.5948    0.0000 C   0  0  0  0  0  0  0  0  0  0  0  0
    2.5417    1.8102    0.0000 C   0  0  0  0  0  0  0  0  0  0  0  0
  2  1  1  0  0  0  0
  2  3  2  0  0  0  0
  4  2  1  0  0  0  0
  4  5  2  0  0  0  0
  5  6  1  0  0  0  0
  6  7  1  0  0  0  0
  7  8  2  0  0  0  0
  7  9  1  0  0  0  0
  9  4  1  0  0  0  0
 10  9  1  0  0  0  0
  1 10  2  0  0  0  0
 10 11  1  0  0  0  0
 12 11  1  0  0  0  0
 13 12  2  0  0  0  0
 14 13  1  0  0  0  0
 14 15  1  0  0  0  0
 16 14  2  0  0  0  0
 17 16  1  0  0  0  0
 11 17  2  0  0  0  0
  5 18  1  0  0  0  0
 19 18  1  0  0  0  0
 20 19  2  0  0  0  0
 21 20  1  0  0  0  0
 21 22  1  0  0  0  0
 23 22  1  0  0  0  0
 24 23  2  0  0  0  0
 25 24  1  0  0  0  0
 26 25  2  0  0  0  0
 27 26  1  0  0  0  0
 22 27  2  0  0  0  0
 28 21  2  0  0  0  0
 29 28  1  0  0  0  0
 18 29  2  0  0  0  0
M  END
> <RowID>
454

> <Original_SMILES>
O=C1NC(=C2C1=C(NC2=O)C1C=CC(Cl)=CC=1)C1C=CC(=CC=1)C1C=CC=CC=1

> <Canonical_QSARr>
O=C1N=C(C2C1=C(NC2=O)C1C=CC(=CC=1)C1C=CC=CC=1)C1C=CC(Cl)=CC=1

> <InChI_Code_QSARr>
InChI=1S/C24H15ClN2O2/c25-18-12-10-17(11-13-18)22-20-19(23(28)27-22)21(26-24(20)29)16-8-6-15(7-9-16)14-4-2-1-3-5-14/h1-13,20H,(H,26,29)

> <InChI Key_QSARr>
HDPBXRMUJWRHMK-UHFFFAOYSA-N

> <Salt_Solvent>


> <Salt_Solvent_ID>
0

> <Number of connected components>
1

$$$$
Molecule_455
  Mrv2316 01072400032D          

 33 36  0  0  0  0            999 V2000
    0.1299    2.4000    0.0000 C   0  0  0  0  0  0  0  0  0  0  0  0
   -0.5846    1.9875    0.0000 C   0  0  0  0  0  0  0  0  0  0  0  0
   -1.2990    2.4000    0.0000 C   0  0  0  0  0  0  0  0  0  0  0  0
   -2.0135    1.9875    0.0000 C   0  0  0  0  0  0  0  0  0  0  0  0
   -2.0135    1.1625    0.0000 C   0  0  0  0  0  0  0  0  0  0  0  0
   -1.2990    0.7500    0.0000 C   0  0  0  0  0  0  0  0  0  0  0  0
   -0.5846    1.1625    0.0000 C   0  0  0  0  0  0  0  0  0  0  0  0
    0.1299    0.7500    0.0000 N   0  0  0  0  0  0  0  0  0  0  0  0
    0.1299   -0.0750    0.0000 C   0  0  0  0  0  0  0  0  0  0  0  0
   -0.5846   -0.4875    0.0000 O   0  0  0  0  0  0  0  0  0  0  0  0
    0.8444   -0.4875    0.0000 C   0  0  0  0  0  0  0  0  0  0  0  0
    1.5588   -0.0750    0.0000 C   0  0  0  0  0  0  0  0  0  0  0  0
    2.2733   -0.4875    0.0000 C   0  0  0  0  0  0  0  0  0  0  0  0
    2.9878   -0.0750    0.0000 C   0  0  0  0  0  0  0  0  0  0  0  0
    3.7023   -0.4875    0.0000 C   0  0  0  0  0  0  0  0  0  0  0  0
    3.7023   -1.3125    0.0000 C   0  0  0  0  0  0  0  0  0  0  0  0
    2.9878   -1.7250    0.0000 C   0  0  0  0  0  0  0  0  0  0  0  0
    2.2733   -1.3125    0.0000 C   0  0  0  0  0  0  0  0  0  0  0  0
    1.5588   -1.7250    0.0000 C   0  0  0  0  0  0  0  0  0  0  0  0
    1.5588   -2.5500    0.0000 N   0  0  0  0  0  0  0  0  0  0  0  0
    0.8444   -2.9625    0.0000 N   0  0  0  0  0  0  0  0  0  0  0  0
    0.8444   -3.7875    0.0000 C   0  0  0  0  0  0  0  0  0  0  0  0
    0.1299   -4.2000    0.0000 C   0  0  0  0  0  0  0  0  0  0  0  0
    0.1299   -5.0250    0.0000 C   0  0  0  0  0  0  0  0  0  0  0  0
    0.8444   -5.4375    0.0000 C   0  0  0  0  0  0  0  0  0  0  0  0
    0.8444   -6.2625    0.0000 Cl  0  0  0  0  0  0  0  0  0  0  0  0
    1.5588   -5.0250    0.0000 C   0  0  0  0  0  0  0  0  0  0  0  0
    1.5588   -4.2000    0.0000 C   0  0  0  0  0  0  0  0  0  0  0  0
    2.2733   -3.7875    0.0000 N   0  3  0  0  0  0  0  0  0  0  0  0
    2.2733   -2.9625    0.0000 O   0  5  0  0  0  0  0  0  0  0  0  0
    2.9878   -4.2000    0.0000 O   0  0  0  0  0  0  0  0  0  0  0  0
    0.8444   -1.3125    0.0000 C   0  0  0  0  0  0  0  0  0  0  0  0
    0.1299   -1.7250    0.0000 O   0  0  0  0  0  0  0  0  0  0  0  0
  1  2  1  0  0  0  0
  3  2  1  0  0  0  0
  4  3  2  0  0  0  0
  5  4  1  0  0  0  0
  6  5  2  0  0  0  0
  7  6  1  0  0  0  0
  2  7  2  0  0  0  0
  7  8  1  0  0  0  0
  8  9  1  0  0  0  0
  9 10  2  0  0  0  0
  9 11  1  0  0  0  0
 12 11  1  0  0  0  0
 13 12  2  0  0  0  0
 13 14  1  0  0  0  0
 14 15  2  0  0  0  0
 15 16  1  0  0  0  0
 16 17  2  0  0  0  0
 17 18  1  0  0  0  0
 18 13  1  0  0  0  0
 19 18  2  0  0  0  0
 20 19  1  4  0  0  0
 20 21  2  0  0  0  0
 21 22  1  0  0  0  0
 23 22  1  0  0  0  0
 24 23  2  0  0  0  0
 25 24  1  0  0  0  0
 25 26  1  0  0  0  0
 27 25  2  0  0  0  0
 28 27  1  0  0  0  0
 22 28  2  0  0  0  0
 28 29  1  0  0  0  0
 29 30  1  0  0  0  0
 29 31  2  0  0  0  0
 32 19  1  0  0  0  0
 11 32  2  0  0  0  0
 32 33  1  0  0  0  0
M  CHG  2  29   1  30  -1
M  END
> <RowID>
455

> <Original_SMILES>
CC1C=CC=CC=1NC(=O)C1C=C2C=CC=CC2=C(N=NC2C=CC(Cl)=CC=2[N+]([O-])=O)C=1O

> <Canonical_QSARr>
CC1C=CC=CC=1NC(=O)C1C=C2C=CC=CC2=C(N=NC2C=CC(Cl)=CC=2[N+]([O-])=O)C=1O

> <InChI_Code_QSARr>
InChI=1S/C24H17ClN4O4/c1-14-6-2-5-9-19(14)26-24(31)18-12-15-7-3-4-8-17(15)22(23(18)30)28-27-20-11-10-16(25)13-21(20)29(32)33/h2-13,30H,1H3,(H,26,31)

> <InChI Key_QSARr>
WXHYPQWKGYEJKW-UHFFFAOYSA-N

> <Salt_Solvent>


> <Salt_Solvent_ID>
0

> <Number of connected components>
1

$$$$
Molecule_456
  Mrv2316 01072400032D          

 34 37  0  0  0  0            999 V2000
    0.1903   -0.8761    0.0000 C   0  0  0  0  0  0  0  0  0  0  0  0
    0.4453   -0.0915    0.0000 C   0  0  0  0  0  0  0  0  0  0  0  0
   -0.0397    0.5760    0.0000 N   0  0  0  0  0  0  0  0  0  0  0  0
    0.4453    1.2434    0.0000 C   0  0  0  0  0  0  0  0  0  0  0  0
    0.1903    2.0280    0.0000 C   0  0  0  0  0  0  0  0  0  0  0  0
   -0.6166    2.1996    0.0000 C   0  0  0  0  0  0  0  0  0  0  0  0
   -0.8716    2.9842    0.0000 C   0  0  0  0  0  0  0  0  0  0  0  0
    1.2299    0.9885    0.0000 N   0  0  0  0  0  0  0  0  0  0  0  0
    1.9444    1.4010    0.0000 N   0  0  0  0  0  0  0  0  0  0  0  0
    2.6588    0.9885    0.0000 C   0  0  0  0  0  0  0  0  0  0  0  0
    2.6588    0.1635    0.0000 N   0  0  0  0  0  0  0  0  0  0  0  0
    1.9444   -0.2490    0.0000 C   0  0  0  0  0  0  0  0  0  0  0  0
    1.9444   -1.0740    0.0000 O   0  0  0  0  0  0  0  0  0  0  0  0
    1.2299    0.1635    0.0000 C   0  0  0  0  0  0  0  0  0  0  0  0
    3.3733    1.4010    0.0000 C   0  0  0  0  0  0  0  0  0  0  0  0
    4.0878    0.9885    0.0000 C   0  0  0  0  0  0  0  0  0  0  0  0
    4.8022    1.4010    0.0000 C   0  0  0  0  0  0  0  0  0  0  0  0
    5.5167    0.9885    0.0000 S   0  0  0  0  0  0  0  0  0  0  0  0
    5.1042    0.2740    0.0000 O   0  0  0  0  0  0  0  0  0  0  0  0
    5.9292    1.7029    0.0000 O   0  0  0  0  0  0  0  0  0  0  0  0
    6.2312    0.5760    0.0000 N   0  0  0  0  0  0  0  0  0  0  0  0
    6.2312   -0.2490    0.0000 C   0  0  0  0  0  0  0  0  0  0  0  0
    6.9457   -0.6615    0.0000 C   0  0  0  0  0  0  0  0  0  0  0  0
    7.6601   -0.2490    0.0000 N   0  0  0  0  0  0  0  0  0  0  0  0
    8.3746   -0.6615    0.0000 C   0  0  0  0  0  0  0  0  0  0  0  0
    9.0891   -0.2490    0.0000 C   0  0  0  0  0  0  0  0  0  0  0  0
    7.6601    0.5760    0.0000 C   0  0  0  0  0  0  0  0  0  0  0  0
    6.9457    0.9885    0.0000 C   0  0  0  0  0  0  0  0  0  0  0  0
    4.8022    2.2260    0.0000 C   0  0  0  0  0  0  0  0  0  0  0  0
    4.0878    2.6385    0.0000 C   0  0  0  0  0  0  0  0  0  0  0  0
    3.3733    2.2260    0.0000 C   0  0  0  0  0  0  0  0  0  0  0  0
    2.6588    2.6385    0.0000 O   0  0  0  0  0  0  0  0  0  0  0  0
    1.9444    2.2260    0.0000 C   0  0  0  0  0  0  0  0  0  0  0  0
    1.2299    2.6385    0.0000 C   0  0  0  0  0  0  0  0  0  0  0  0
  1  2  1  0  0  0  0
  3  2  1  0  0  0  0
  4  3  2  0  0  0  0
  4  5  1  0  0  0  0
  5  6  1  0  0  0  0
  6  7  1  0  0  0  0
  8  4  1  0  0  0  0
  8  9  1  0  0  0  0
  9 10  1  0  0  0  0
 10 11  2  0  0  0  0
 11 12  1  0  0  0  0
 12 13  2  0  0  0  0
 12 14  1  0  0  0  0
  2 14  2  0  0  0  0
 14  8  1  0  0  0  0
 10 15  1  0  0  0  0
 16 15  2  0  0  0  0
 17 16  1  0  0  0  0
 17 18  1  0  0  0  0
 18 19  2  0  0  0  0
 18 20  2  0  0  0  0
 18 21  1  0  0  0  0
 22 21  1  0  0  0  0
 23 22  1  0  0  0  0
 24 23  1  0  0  0  0
 24 25  1  0  0  0  0
 25 26  1  0  0  0  0
 27 24  1  0  0  0  0
 28 27  1  0  0  0  0
 21 28  1  0  0  0  0
 29 17  2  0  0  0  0
 30 29  1  0  0  0  0
 31 30  2  0  0  0  0
 15 31  1  0  0  0  0
 31 32  1  0  0  0  0
 32 33  1  0  0  0  0
 33 34  1  0  0  0  0
M  END
> <RowID>
456

> <Original_SMILES>
CC1N=C(CCC)N2NC(=NC(=O)C2=1)C1=CC(=CC=C1OCC)S(=O)(=O)N1CCN(CC1)CC

> <Canonical_QSARr>
CC1N=C(CCC)N2NC(=NC(=O)C2=1)C1=CC(=CC=C1OCC)S(=O)(=O)N1CCN(CC1)CC

> <InChI_Code_QSARr>
InChI=1S/C23H32N6O4S/c1-5-8-20-24-16(4)21-23(30)25-22(26-29(20)21)18-15-17(9-10-19(18)33-7-3)34(31,32)28-13-11-27(6-2)12-14-28/h9-10,15H,5-8,11-14H2,1-4H3,(H,25,26,30)

> <InChI Key_QSARr>
SECKRCOLJRRGGV-UHFFFAOYSA-N

> <Salt_Solvent>


> <Salt_Solvent_ID>
0

> <Number of connected components>
1

$$$$
Molecule_458
  Mrv2316 01072400032D          

 29 30  0  0  0  0            999 V2000
   -2.3096    3.4247    0.0000 C   0  0  0  0  0  0  0  0  0  0  0  0
   -1.8971    4.1392    0.0000 C   0  0  0  0  0  0  0  0  0  0  0  0
   -1.4846    4.8537    0.0000 C   0  0  0  0  0  0  0  0  0  0  0  0
   -2.6115    4.5517    0.0000 C   0  0  0  0  0  0  0  0  0  0  0  0
   -2.6115    5.3767    0.0000 C   0  0  0  0  0  0  0  0  0  0  0  0
   -3.3260    5.7892    0.0000 C   0  0  0  0  0  0  0  0  0  0  0  0
   -4.0405    5.3767    0.0000 C   0  0  0  0  0  0  0  0  0  0  0  0
   -4.7549    5.7892    0.0000 O   0  0  0  0  0  0  0  0  0  0  0  0
   -5.4694    5.3767    0.0000 C   0  0  0  0  0  0  0  0  0  0  0  0
   -6.1839    5.7892    0.0000 C   0  0  0  0  0  0  0  0  0  0  0  0
   -6.8984    5.3767    0.0000 O   0  0  0  0  0  0  0  0  0  0  0  0
   -7.6128    5.7892    0.0000 C   0  0  0  0  0  0  0  0  0  0  0  0
   -8.3273    5.3767    0.0000 C   0  0  0  0  0  0  0  0  0  0  0  0
   -7.6128    6.6142    0.0000 O   0  0  0  0  0  0  0  0  0  0  0  0
   -4.0405    4.5517    0.0000 C   0  0  0  0  0  0  0  0  0  0  0  0
   -3.3260    4.1392    0.0000 C   0  0  0  0  0  0  0  0  0  0  0  0
   -1.1826    3.7267    0.0000 C   0  0  0  0  0  0  0  0  0  0  0  0
   -1.1826    2.9017    0.0000 C   0  0  0  0  0  0  0  0  0  0  0  0
   -0.4681    2.4892    0.0000 C   0  0  0  0  0  0  0  0  0  0  0  0
    0.2464    2.9017    0.0000 C   0  0  0  0  0  0  0  0  0  0  0  0
    0.9608    2.4892    0.0000 O   0  0  0  0  0  0  0  0  0  0  0  0
    1.6753    2.9017    0.0000 C   0  0  0  0  0  0  0  0  0  0  0  0
    2.3898    2.4892    0.0000 C   0  0  0  0  0  0  0  0  0  0  0  0
    3.1042    2.9017    0.0000 O   0  0  0  0  0  0  0  0  0  0  0  0
    3.8187    2.4892    0.0000 C   0  0  0  0  0  0  0  0  0  0  0  0
    4.5332    2.9017    0.0000 C   0  0  0  0  0  0  0  0  0  0  0  0
    3.8187    1.6642    0.0000 O   0  0  0  0  0  0  0  0  0  0  0  0
    0.2464    3.7267    0.0000 C   0  0  0  0  0  0  0  0  0  0  0  0
   -0.4681    4.1392    0.0000 C   0  0  0  0  0  0  0  0  0  0  0  0
  1  2  1  0  0  0  0
  2  3  1  0  0  0  0
  2  4  1  0  0  0  0
  5  4  1  0  0  0  0
  6  5  2  0  0  0  0
  7  6  1  0  0  0  0
  7  8  1  0  0  0  0
  8  9  1  0  0  0  0
  9 10  1  0  0  0  0
 10 11  1  0  0  0  0
 11 12  1  0  0  0  0
 12 13  1  0  0  0  0
 12 14  2  0  0  0  0
 15  7  2  0  0  0  0
 16 15  1  0  0  0  0
  4 16  2  0  0  0  0
  2 17  1  0  0  0  0
 18 17  1  0  0  0  0
 19 18  2  0  0  0  0
 20 19  1  0  0  0  0
 20 21  1  0  0  0  0
 21 22  1  0  0  0  0
 22 23  1  0  0  0  0
 23 24  1  0  0  0  0
 24 25  1  0  0  0  0
 25 26  1  0  0  0  0
 25 27  2  0  0  0  0
 28 20  2  0  0  0  0
 29 28  1  0  0  0  0
 17 29  2  0  0  0  0
M  END
> <RowID>
458

> <Original_SMILES>
CC(C)(C1C=CC(=CC=1)OCCOC(C)=O)C1C=CC(=CC=1)OCCOC(C)=O

> <Canonical_QSARr>
CC(C)(C1C=CC(=CC=1)OCCOC(C)=O)C1C=CC(=CC=1)OCCOC(C)=O

> <InChI_Code_QSARr>
InChI=1S/C23H28O6/c1-17(24)26-13-15-28-21-9-5-19(6-10-21)23(3,4)20-7-11-22(12-8-20)29-16-14-27-18(2)25/h5-12H,13-16H2,1-4H3

> <InChI Key_QSARr>
HBDPNIKSHRQAJF-UHFFFAOYSA-N

> <Salt_Solvent>


> <Salt_Solvent_ID>
0

> <Number of connected components>
1

$$$$
Molecule_459
  Mrv2316 01072400032D          

 10 10  0  0  0  0            999 V2000
   -1.6366    3.0259    0.0000 O   0  0  0  0  0  0  0  0  0  0  0  0
   -1.4651    2.2189    0.0000 C   0  0  0  0  0  0  0  0  0  0  0  0
   -0.6804    1.9640    0.0000 C   0  0  0  0  0  0  0  0  0  0  0  0
   -0.5089    1.1570    0.0000 C   0  0  0  0  0  0  0  0  0  0  0  0
    0.2757    0.9021    0.0000 N   0  0  0  0  0  0  0  0  0  0  0  0
    0.5306    0.1175    0.0000 C   0  0  0  0  0  0  0  0  0  0  0  0
    1.3556    0.1175    0.0000 C   0  0  0  0  0  0  0  0  0  0  0  0
    1.6106    0.9021    0.0000 O   0  0  0  0  0  0  0  0  0  0  0  0
    0.9431    1.3870    0.0000 C   0  0  0  0  0  0  0  0  0  0  0  0
    0.9431    2.2120    0.0000 O   0  0  0  0  0  0  0  0  0  0  0  0
  1  2  1  0  0  0  0
  2  3  1  0  0  0  0
  3  4  1  0  0  0  0
  4  5  1  0  0  0  0
  6  5  1  0  0  0  0
  7  6  1  0  0  0  0
  8  7  1  0  0  0  0
  9  8  1  0  0  0  0
  5  9  1  0  0  0  0
  9 10  2  0  0  0  0
M  END
> <RowID>
459

> <Original_SMILES>
OCCCN1CCOC1=O

> <Canonical_QSARr>
OCCCN1CCOC1=O

> <InChI_Code_QSARr>
InChI=1S/C6H11NO3/c8-4-1-2-7-3-5-10-6(7)9/h8H,1-5H2

> <InChI Key_QSARr>
WYNTXFYGOPFHTF-UHFFFAOYSA-N

> <Salt_Solvent>


> <Salt_Solvent_ID>
0

> <Number of connected components>
1

$$$$
Molecule_461
  Mrv2316 01072400032D          

 15 15  0  0  0  0            999 V2000
    1.6671    0.2475    0.0000 C   0  0  0  0  0  0  0  0  0  0  0  0
    0.9526    0.6600    0.0000 C   0  0  0  0  0  0  0  0  0  0  0  0
    0.9526    1.4850    0.0000 C   0  0  0  0  0  0  0  0  0  0  0  0
    0.2382    1.8975    0.0000 C   0  0  0  0  0  0  0  0  0  0  0  0
    0.2382    2.7225    0.0000 N   0  0  0  0  0  0  0  0  0  0  0  0
   -0.4763    1.4850    0.0000 C   0  0  0  0  0  0  0  0  0  0  0  0
   -1.1908    1.8975    0.0000 O   0  0  0  0  0  0  0  0  0  0  0  0
   -1.9053    1.4850    0.0000 C   0  0  0  0  0  0  0  0  0  0  0  0
   -0.4763    0.6600    0.0000 C   0  0  0  0  0  0  0  0  0  0  0  0
    0.2382    0.2475    0.0000 C   0  0  0  0  0  0  0  0  0  0  0  0
    0.2382   -0.5775    0.0000 S   0  0  0  0  0  0  0  0  0  0  0  0
   -0.5868   -0.5775    0.0000 O   0  0  0  0  0  0  0  0  0  0  0  0
    1.0632   -0.5775    0.0000 O   0  0  0  0  0  0  0  0  0  0  0  0
    0.2382   -1.4025    0.0000 N   0  0  0  0  0  0  0  0  0  0  0  0
    0.9526   -1.8150    0.0000 C   0  0  0  0  0  0  0  0  0  0  0  0
  1  2  1  0  0  0  0
  3  2  1  0  0  0  0
  4  3  2  0  0  0  0
  4  5  1  0  0  0  0
  6  4  1  0  0  0  0
  6  7  1  0  0  0  0
  7  8  1  0  0  0  0
  9  6  2  0  0  0  0
 10  9  1  0  0  0  0
  2 10  2  0  0  0  0
 10 11  1  0  0  0  0
 11 12  2  0  0  0  0
 11 13  2  0  0  0  0
 11 14  1  0  0  0  0
 14 15  1  0  0  0  0
M  END
> <RowID>
461

> <Original_SMILES>
CC1C=C(N)C(=CC=1S(=O)(=O)NC)OC

> <Canonical_QSARr>
CC1C=C(N)C(=CC=1S(=O)(=O)NC)OC

> <InChI_Code_QSARr>
InChI=1S/C9H14N2O3S/c1-6-4-7(10)8(14-3)5-9(6)15(12,13)11-2/h4-5,11H,10H2,1-3H3

> <InChI Key_QSARr>
GWSQAGVGSHXRJK-UHFFFAOYSA-N

> <Salt_Solvent>


> <Salt_Solvent_ID>
0

> <Number of connected components>
1

$$$$
Molecule_462
  Mrv2316 01072400032D          

 14 13  0  0  0  0            999 V2000
    7.2849    3.3809    0.0000 N   0  0  0  0  0  0  0  0  0  0  0  0
    7.2849    2.5559    0.0000 C   0  0  0  0  0  0  0  0  0  0  0  0
    6.5704    2.1434    0.0000 C   0  0  0  0  0  0  0  0  0  0  0  0
    5.8559    2.5559    0.0000 S   0  0  0  0  0  0  0  0  0  0  0  0
    5.1414    2.1434    0.0000 S   0  0  0  0  0  0  0  0  0  0  0  0
    4.4270    2.5559    0.0000 C   0  0  0  0  0  0  0  0  0  0  0  0
    3.7125    2.1434    0.0000 C   0  0  0  0  0  0  0  0  0  0  0  0
    3.7125    1.3184    0.0000 N   0  0  0  0  0  0  0  0  0  0  0  0
    2.9980    2.5559    0.0000 C   0  0  0  0  0  0  0  0  0  0  0  0
    2.2836    2.1434    0.0000 O   0  0  0  0  0  0  0  0  0  0  0  0
    2.9980    3.3809    0.0000 O   0  0  0  0  0  0  0  0  0  0  0  0
    7.9993    2.1434    0.0000 C   0  0  0  0  0  0  0  0  0  0  0  0
    8.7138    2.5559    0.0000 O   0  0  0  0  0  0  0  0  0  0  0  0
    7.9993    1.3184    0.0000 O   0  0  0  0  0  0  0  0  0  0  0  0
  1  2  1  0  0  0  0
  2  3  1  0  0  0  0
  3  4  1  0  0  0  0
  4  5  1  0  0  0  0
  5  6  1  0  0  0  0
  6  7  1  0  0  0  0
  7  8  1  0  0  0  0
  7  9  1  0  0  0  0
  9 10  1  0  0  0  0
  9 11  2  0  0  0  0
  2 12  1  0  0  0  0
 12 13  1  0  0  0  0
 12 14  2  0  0  0  0
M  END
> <RowID>
462

> <Original_SMILES>
NC(CSSCC(N)C(O)=O)C(O)=O

> <Canonical_QSARr>
NC(CSSCC(N)C(O)=O)C(O)=O

> <InChI_Code_QSARr>
InChI=1S/C6H12N2O4S2/c7-3(5(9)10)1-13-14-2-4(8)6(11)12/h3-4H,1-2,7-8H2,(H,9,10)(H,11,12)

> <InChI Key_QSARr>
LEVWYRKDKASIDU-UHFFFAOYSA-N

> <Salt_Solvent>


> <Salt_Solvent_ID>
0

> <Number of connected components>
1

$$$$
Molecule_463
  Mrv2316 01072400032D          

 27 28  0  0  0  0            999 V2000
    0.0000   -6.6000    0.0000 C   0  0  0  0  0  0  0  0  0  0  0  0
    0.0000   -5.7750    0.0000 C   0  0  0  0  0  0  0  0  0  0  0  0
   -0.7145   -5.3625    0.0000 C   0  0  0  0  0  0  0  0  0  0  0  0
    0.7145   -5.3625    0.0000 C   0  0  0  0  0  0  0  0  0  0  0  0
    1.4289   -5.7750    0.0000 C   0  0  0  0  0  0  0  0  0  0  0  0
    2.1434   -5.3625    0.0000 C   0  0  0  0  0  0  0  0  0  0  0  0
    2.1434   -4.5375    0.0000 C   0  0  0  0  0  0  0  0  0  0  0  0
    1.4289   -4.1250    0.0000 C   0  0  0  0  0  0  0  0  0  0  0  0
    1.4289   -3.3000    0.0000 C   0  0  0  0  0  0  0  0  0  0  0  0
    0.7145   -2.8875    0.0000 C   0  0  0  0  0  0  0  0  0  0  0  0
    2.1434   -2.8875    0.0000 C   0  0  0  0  0  0  0  0  0  0  0  0
    0.7145   -4.5375    0.0000 C   0  0  0  0  0  0  0  0  0  0  0  0
    0.0000   -4.1250    0.0000 N   0  0  0  0  0  0  0  0  0  0  0  0
    0.0000   -3.3000    0.0000 C   0  0  0  0  0  0  0  0  0  0  0  0
    0.0000   -2.4750    0.0000 N   0  0  0  0  0  0  0  0  0  0  0  0
   -0.7145   -2.0625    0.0000 C   0  0  0  0  0  0  0  0  0  0  0  0
   -0.7145   -1.2375    0.0000 C   0  0  0  0  0  0  0  0  0  0  0  0
    0.0000   -0.8250    0.0000 C   0  0  0  0  0  0  0  0  0  0  0  0
    0.0000    0.0000    0.0000 C   0  0  0  0  0  0  0  0  0  0  0  0
    0.7145   -1.2375    0.0000 C   0  0  0  0  0  0  0  0  0  0  0  0
   -1.4289   -0.8250    0.0000 C   0  0  0  0  0  0  0  0  0  0  0  0
   -2.1434   -1.2375    0.0000 C   0  0  0  0  0  0  0  0  0  0  0  0
   -2.1434   -2.0625    0.0000 C   0  0  0  0  0  0  0  0  0  0  0  0
   -1.4289   -2.4750    0.0000 C   0  0  0  0  0  0  0  0  0  0  0  0
   -1.4289   -3.3000    0.0000 C   0  0  0  0  0  0  0  0  0  0  0  0
   -0.7145   -3.7125    0.0000 C   0  0  0  0  0  0  0  0  0  0  0  0
   -2.1434   -3.7125    0.0000 C   0  0  0  0  0  0  0  0  0  0  0  0
  1  2  1  0  0  0  0
  2  3  1  0  0  0  0
  2  4  1  0  0  0  0
  5  4  1  0  0  0  0
  6  5  2  0  0  0  0
  7  6  1  0  0  0  0
  8  7  2  0  0  0  0
  8  9  1  0  0  0  0
  9 10  1  0  0  0  0
  9 11  1  0  0  0  0
 12  8  1  0  0  0  0
  4 12  2  0  0  0  0
 12 13  1  0  0  0  0
 13 14  2  0  0  0  0
 14 15  2  0  0  0  0
 15 16  1  0  0  0  0
 17 16  1  0  0  0  0
 17 18  1  0  0  0  0
 18 19  1  0  0  0  0
 18 20  1  0  0  0  0
 21 17  2  0  0  0  0
 22 21  1  0  0  0  0
 23 22  2  0  0  0  0
 24 23  1  0  0  0  0
 16 24  2  0  0  0  0
 24 25  1  0  0  0  0
 25 26  1  0  0  0  0
 25 27  1  0  0  0  0
M  END
> <RowID>
463

> <Original_SMILES>
CC(C)C1C=CC=C(C(C)C)C=1N=C=NC1C(=CC=CC=1C(C)C)C(C)C

> <Canonical_QSARr>
CC(C)C1C=CC=C(C(C)C)C=1N=C=NC1C(=CC=CC=1C(C)C)C(C)C

> <InChI_Code_QSARr>
InChI=1S/C25H34N2/c1-16(2)20-11-9-12-21(17(3)4)24(20)26-15-27-25-22(18(5)6)13-10-14-23(25)19(7)8/h9-14,16-19H,1-8H3

> <InChI Key_QSARr>
XLDBGFGREOMWSL-UHFFFAOYSA-N

> <Salt_Solvent>


> <Salt_Solvent_ID>
0

> <Number of connected components>
1

$$$$
Molecule_464
  Mrv2316 01072400032D          

 16 16  0  0  0  0            999 V2000
    0.0000   -3.8156    0.0000 C   0  0  0  0  0  0  0  0  0  0  0  0
    0.7145   -3.4031    0.0000 O   0  0  0  0  0  0  0  0  0  0  0  0
    1.4289   -3.8156    0.0000 C   0  0  0  0  0  0  0  0  0  0  0  0
    1.4289   -4.6406    0.0000 O   0  0  0  0  0  0  0  0  0  0  0  0
    2.1434   -3.4031    0.0000 C   0  0  0  0  0  0  0  0  0  0  0  0
    2.8579   -3.8156    0.0000 O   0  0  0  0  0  0  0  0  0  0  0  0
    3.5724   -3.4031    0.0000 C   0  0  0  0  0  0  0  0  0  0  0  0
    4.2868   -3.8156    0.0000 N   0  0  0  0  0  0  0  0  0  0  0  0
    5.0013   -3.4031    0.0000 C   0  0  0  0  0  0  0  0  0  0  0  0
    5.7158   -3.8156    0.0000 F   0  0  0  0  0  0  0  0  0  0  0  0
    5.0013   -2.5781    0.0000 C   0  0  0  0  0  0  0  0  0  0  0  0
    5.7158   -2.1656    0.0000 Cl  0  0  0  0  0  0  0  0  0  0  0  0
    4.2868   -2.1656    0.0000 C   0  0  0  0  0  0  0  0  0  0  0  0
    4.2868   -1.3406    0.0000 N   0  0  0  0  0  0  0  0  0  0  0  0
    3.5724   -2.5781    0.0000 C   0  0  0  0  0  0  0  0  0  0  0  0
    2.8579   -2.1656    0.0000 Cl  0  0  0  0  0  0  0  0  0  0  0  0
  1  2  1  0  0  0  0
  2  3  1  0  0  0  0
  3  4  2  0  0  0  0
  3  5  1  0  0  0  0
  5  6  1  0  0  0  0
  6  7  1  0  0  0  0
  8  7  2  0  0  0  0
  9  8  1  0  0  0  0
  9 10  1  0  0  0  0
 11  9  2  0  0  0  0
 11 12  1  0  0  0  0
 13 11  1  0  0  0  0
 13 14  1  0  0  0  0
 15 13  2  0  0  0  0
  7 15  1  0  0  0  0
 15 16  1  0  0  0  0
M  END
> <RowID>
464

> <Original_SMILES>
COC(=O)COC1=NC(F)=C(Cl)C(N)=C1Cl

> <Canonical_QSARr>
COC(=O)COC1=NC(F)=C(Cl)C(N)=C1Cl

> <InChI_Code_QSARr>
InChI=1S/C8H7Cl2FN2O3/c1-15-3(14)2-16-8-5(10)6(12)4(9)7(11)13-8/h2H2,1H3,(H2,12,13)

> <InChI Key_QSARr>
GIIKFBXVGYJLEK-UHFFFAOYSA-N

> <Salt_Solvent>


> <Salt_Solvent_ID>
0

> <Number of connected components>
1

$$$$
Molecule_465
  Mrv2316 01072400032D          

 27 30  0  0  0  0            999 V2000
    3.5330   -1.2214    0.0000 C   0  0  0  0  0  0  0  0  0  0  0  0
    3.8928   -1.9638    0.0000 C   0  0  0  0  0  0  0  0  0  0  0  0
    4.4247   -1.3331    0.0000 C   0  0  0  0  0  0  0  0  0  0  0  0
    5.2368   -1.4783    0.0000 C   0  0  0  0  0  0  0  0  0  0  0  0
    5.5171   -2.2542    0.0000 C   0  0  0  0  0  0  0  0  0  0  0  0
    4.9853   -2.8849    0.0000 C   0  0  0  0  0  0  0  0  0  0  0  0
    5.2656   -3.6609    0.0000 C   0  0  0  0  0  0  0  0  0  0  0  0
    6.0777   -3.8061    0.0000 C   0  0  0  0  0  0  0  0  0  0  0  0
    6.6095   -3.1754    0.0000 C   0  0  0  0  0  0  0  0  0  0  0  0
    7.4216   -3.3206    0.0000 C   0  0  0  0  0  0  0  0  0  0  0  0
    7.9534   -2.6899    0.0000 C   0  0  0  0  0  0  0  0  0  0  0  0
    8.7656   -2.8351    0.0000 O   0  0  0  0  0  0  0  0  0  0  0  0
    7.6731   -1.9139    0.0000 C   0  0  0  0  0  0  0  0  0  0  0  0
    6.8610   -1.7687    0.0000 C   0  0  0  0  0  0  0  0  0  0  0  0
    6.3292   -2.3994    0.0000 C   0  0  0  0  0  0  0  0  0  0  0  0
    6.0489   -1.6235    0.0000 C   0  0  0  0  0  0  0  0  0  0  0  0
    4.1731   -2.7397    0.0000 C   0  0  0  0  0  0  0  0  0  0  0  0
    3.5218   -3.2461    0.0000 C   0  0  0  0  0  0  0  0  0  0  0  0
    2.8390   -2.7831    0.0000 C   0  0  0  0  0  0  0  0  0  0  0  0
    3.0683   -1.9906    0.0000 C   0  0  0  0  0  0  0  0  0  0  0  0
    2.3074   -1.6717    0.0000 O   0  0  0  0  0  0  0  0  0  0  0  0
    1.6508   -2.1712    0.0000 C   0  0  0  0  0  0  0  0  0  0  0  0
    1.7551   -2.9896    0.0000 C   0  0  0  0  0  0  0  0  0  0  0  0
    0.8899   -1.8524    0.0000 O   0  0  0  0  0  0  0  0  0  0  0  0
    2.9469   -1.1746    0.0000 C   0  0  0  0  0  0  0  0  0  0  0  0
    3.5929   -0.6614    0.0000 C   0  0  0  0  0  0  0  0  0  0  0  0
    2.1795   -0.8717    0.0000 O   0  0  0  0  0  0  0  0  0  0  0  0
  1  2  1  0  0  0  0
  3  2  1  0  0  0  0
  4  3  1  0  0  0  0
  5  4  1  0  0  0  0
  5  6  1  0  0  0  0
  6  7  1  0  0  0  0
  7  8  1  0  0  0  0
  8  9  1  0  0  0  0
 10  9  2  0  0  0  0
 11 10  1  0  0  0  0
 11 12  2  0  0  0  0
 13 11  1  0  0  0  0
 14 13  1  0  0  0  0
 15 14  1  0  0  0  0
  9 15  1  0  0  0  0
 15  5  1  0  0  0  0
 15 16  1  0  0  0  0
 17  6  1  0  0  0  0
 17  2  1  0  0  0  0
 18 17  1  0  0  0  0
 19 18  1  0  0  0  0
 20 19  1  0  0  0  0
  2 20  1  0  0  0  0
 20 21  1  0  0  0  0
 21 22  1  0  0  0  0
 22 23  1  0  0  0  0
 22 24  2  0  0  0  0
 20 25  1  0  0  0  0
 25 26  1  0  0  0  0
 25 27  2  0  0  0  0
M  END
> <RowID>
465

> <Original_SMILES>
CC12CCC3C(CCC4=CC(=O)CCC43C)C1CCC2(OC(C)=O)C(C)=O

> <Canonical_QSARr>
CC12CCC3C(CCC4=CC(=O)CCC43C)C1CCC2(OC(C)=O)C(C)=O

> <InChI_Code_QSARr>
InChI=1S/C23H32O4/c1-14(24)23(27-15(2)25)12-9-20-18-6-5-16-13-17(26)7-10-21(16,3)19(18)8-11-22(20,23)4/h13,18-20H,5-12H2,1-4H3

> <InChI Key_QSARr>
VTHUYJIXSMGYOQ-UHFFFAOYSA-N

> <Salt_Solvent>


> <Salt_Solvent_ID>
0

> <Number of connected components>
1

$$$$
Molecule_466
  Mrv2316 01072400032D          

  4  3  0  0  0  0            999 V2000
    1.2375    0.7145    0.0000 C   0  0  0  0  0  0  0  0  0  0  0  0
    0.8250   -0.0000    0.0000 C   0  0  0  0  0  0  0  0  0  0  0  0
    1.2375   -0.7145    0.0000 C   0  0  0  0  0  0  0  0  0  0  0  0
    0.0000   -0.0000    0.0000 Br  0  0  0  0  0  0  0  0  0  0  0  0
  1  2  1  0  0  0  0
  2  3  1  0  0  0  0
  2  4  1  0  0  0  0
M  END
> <RowID>
466

> <Original_SMILES>
CC(C)Br

> <Canonical_QSARr>
CC(C)Br

> <InChI_Code_QSARr>
InChI=1S/C3H7Br/c1-3(2)4/h3H,1-2H3

> <InChI Key_QSARr>
NAMYKGVDVNBCFQ-UHFFFAOYSA-N

> <Salt_Solvent>


> <Salt_Solvent_ID>
0

> <Number of connected components>
1

$$$$
Molecule_467
  Mrv2316 01072400032D          

 10  9  0  0  0  0            999 V2000
    2.2836    2.1434    0.0000 C   0  0  0  0  0  0  0  0  0  0  0  0
    2.9980    2.5559    0.0000 C   0  0  0  0  0  0  0  0  0  0  0  0
    3.7125    2.1434    0.0000 C   0  0  0  0  0  0  0  0  0  0  0  0
    4.4270    2.5559    0.0000 C   0  0  0  0  0  0  0  0  0  0  0  0
    5.1414    2.1434    0.0000 C   0  0  0  0  0  0  0  0  0  0  0  0
    5.8559    2.5559    0.0000 C   0  0  0  0  0  0  0  0  0  0  0  0
    6.5704    2.1434    0.0000 C   0  0  0  0  0  0  0  0  0  0  0  0
    7.2849    2.5559    0.0000 C   0  0  0  0  0  0  0  0  0  0  0  0
    7.9993    2.1434    0.0000 C   0  0  0  0  0  0  0  0  0  0  0  0
    8.7138    2.5559    0.0000 C   0  0  0  0  0  0  0  0  0  0  0  0
  1  2  1  0  0  0  0
  2  3  1  0  0  0  0
  3  4  1  0  0  0  0
  4  5  1  0  0  0  0
  5  6  1  0  0  0  0
  6  7  1  0  0  0  0
  7  8  1  0  0  0  0
  8  9  1  0  0  0  0
  9 10  1  0  0  0  0
M  END
> <RowID>
467

> <Original_SMILES>
CCCCCCCCCC%91.OS(=O)(=O)C1C=CC=CC=1.[*]%91

> <Canonical_QSARr>
CCCCCCCCCC

> <InChI_Code_QSARr>
InChI=1S/C10H22/c1-3-5-7-9-10-8-6-4-2/h3-10H2,1-2H3

> <InChI Key_QSARr>
DIOQZVSQGTUSAI-UHFFFAOYSA-N

> <Salt_Solvent>
OS(C1=CC=CC=C1)(=O)=O

> <Salt_Solvent_ID>
3212

> <Number of connected components>
2

$$$$
Molecule_468
  Mrv2316 01072400032D          

 16 17  0  0  0  0            999 V2000
    1.7345   -1.5390    0.0000 C   0  0  0  0  0  0  0  0  0  0  0  0
    1.3220   -0.8246    0.0000 C   0  0  0  0  0  0  0  0  0  0  0  0
    0.4970   -0.8246    0.0000 C   0  0  0  0  0  0  0  0  0  0  0  0
    1.7345   -0.1101    0.0000 C   0  0  0  0  0  0  0  0  0  0  0  0
    2.5595   -0.1101    0.0000 C   0  0  0  0  0  0  0  0  0  0  0  0
    2.9720    0.6044    0.0000 C   0  0  0  0  0  0  0  0  0  0  0  0
    2.5595    1.3189    0.0000 C   0  0  0  0  0  0  0  0  0  0  0  0
    2.9720    2.0333    0.0000 C   0  0  0  0  0  0  0  0  0  0  0  0
    1.7345    1.3189    0.0000 C   0  0  0  0  0  0  0  0  0  0  0  0
    1.3220    0.6044    0.0000 C   0  0  0  0  0  0  0  0  0  0  0  0
    0.8371    1.2718    0.0000 O   0  0  0  0  0  0  0  0  0  0  0  0
    0.0525    1.0169    0.0000 C   0  0  0  0  0  0  0  0  0  0  0  0
   -0.6150    1.5018    0.0000 C   0  0  0  0  0  0  0  0  0  0  0  0
   -1.3686    1.1662    0.0000 O   0  0  0  0  0  0  0  0  0  0  0  0
    0.0525    0.1919    0.0000 C   0  0  0  0  0  0  0  0  0  0  0  0
    0.8371   -0.0631    0.0000 O   0  0  0  0  0  0  0  0  0  0  0  0
  1  2  1  0  0  0  0
  2  3  1  0  0  0  0
  2  4  1  0  0  0  0
  5  4  1  0  0  0  0
  6  5  1  0  0  0  0
  7  6  1  0  0  0  0
  7  8  1  0  0  0  0
  9  7  1  0  0  0  0
 10  9  1  0  0  0  0
  4 10  1  0  0  0  0
 11 10  1  0  0  0  0
 12 11  1  0  0  0  0
 12 13  1  0  0  0  0
 13 14  1  0  0  0  0
 15 12  1  0  0  0  0
 16 15  1  0  0  0  0
 10 16  1  0  0  0  0
M  END
> <RowID>
468

> <Original_SMILES>
CC(C)C1CCC(C)CC21OC(CO2)CO

> <Canonical_QSARr>
CC(C)C1CCC(C)CC21OC(CO2)CO

> <InChI_Code_QSARr>
InChI=1S/C13H24O3/c1-9(2)12-5-4-10(3)6-13(12)15-8-11(7-14)16-13/h9-12,14H,4-8H2,1-3H3

> <InChI Key_QSARr>
ZBJCYZPANVLBRK-UHFFFAOYSA-N

> <Salt_Solvent>


> <Salt_Solvent_ID>
0

> <Number of connected components>
1

$$$$
Molecule_470
  Mrv2316 01072400032D          

 16 17  0  0  0  0            999 V2000
   -2.4560   -1.4695    0.0000 N   0  0  0  0  0  0  0  0  0  0  0  0
   -1.7415   -1.8820    0.0000 C   0  0  0  0  0  0  0  0  0  0  0  0
   -1.0271   -2.2945    0.0000 C   0  0  0  0  0  0  0  0  0  0  0  0
   -1.0271   -3.1195    0.0000 C   0  0  0  0  0  0  0  0  0  0  0  0
   -0.3126   -3.5320    0.0000 C   0  0  0  0  0  0  0  0  0  0  0  0
    0.4019   -3.1195    0.0000 C   0  0  0  0  0  0  0  0  0  0  0  0
    0.4019   -2.2945    0.0000 C   0  0  0  0  0  0  0  0  0  0  0  0
   -0.3126   -1.8820    0.0000 C   0  0  0  0  0  0  0  0  0  0  0  0
   -0.3126   -1.0570    0.0000 C   0  0  0  0  0  0  0  0  0  0  0  0
    0.4019   -0.6445    0.0000 C   0  0  0  0  0  0  0  0  0  0  0  0
    0.4019    0.1805    0.0000 C   0  0  0  0  0  0  0  0  0  0  0  0
   -0.3126    0.5930    0.0000 C   0  0  0  0  0  0  0  0  0  0  0  0
   -0.3126    1.4180    0.0000 C   0  0  0  0  0  0  0  0  0  0  0  0
   -1.0271    1.8305    0.0000 Br  0  0  0  0  0  0  0  0  0  0  0  0
   -1.0271    0.1805    0.0000 C   0  0  0  0  0  0  0  0  0  0  0  0
   -1.0271   -0.6445    0.0000 C   0  0  0  0  0  0  0  0  0  0  0  0
  1  2  3  0  0  0  0
  2  3  1  0  0  0  0
  4  3  2  0  0  0  0
  5  4  1  0  0  0  0
  6  5  2  0  0  0  0
  7  6  1  0  0  0  0
  8  7  2  0  0  0  0
  3  8  1  0  0  0  0
  8  9  1  0  0  0  0
 10  9  1  0  0  0  0
 11 10  2  0  0  0  0
 12 11  1  0  0  0  0
 12 13  1  0  0  0  0
 13 14  1  0  0  0  0
 15 12  2  0  0  0  0
 16 15  1  0  0  0  0
  9 16  2  0  0  0  0
M  END
> <RowID>
470

> <Original_SMILES>
N#CC1=CC=CC=C1C1C=CC(CBr)=CC=1

> <Canonical_QSARr>
N#CC1=CC=CC=C1C1C=CC(CBr)=CC=1

> <InChI_Code_QSARr>
InChI=1S/C14H10BrN/c15-9-11-5-7-12(8-6-11)14-4-2-1-3-13(14)10-16/h1-8H,9H2

> <InChI Key_QSARr>
LFFIEVAMVPCZNA-UHFFFAOYSA-N

> <Salt_Solvent>


> <Salt_Solvent_ID>
0

> <Number of connected components>
1

$$$$
Molecule_471
  Mrv2316 01072400032D          

 19 18  0  0  0  0            999 V2000
    6.7105    4.6993    0.0000 C   0  0  0  0  0  0  0  0  0  0  0  0
    7.4250    4.2868    0.0000 C   0  0  0  0  0  0  0  0  0  0  0  0
    8.1395    4.6993    0.0000 C   0  0  0  0  0  0  0  0  0  0  0  0
    8.8539    4.2868    0.0000 C   0  0  0  0  0  0  0  0  0  0  0  0
    9.5684    4.6993    0.0000 C   0  0  0  0  0  0  0  0  0  0  0  0
   10.2829    4.2868    0.0000 C   0  0  0  0  0  0  0  0  0  0  0  0
   10.9974    4.6993    0.0000 O   0  0  0  0  0  0  0  0  0  0  0  0
   11.7118    4.2868    0.0000 C   0  0  0  0  0  0  0  0  0  0  0  0
   12.4263    4.6993    0.0000 O   0  0  0  0  0  0  0  0  0  0  0  0
   13.1408    4.2868    0.0000 C   0  0  0  0  0  0  0  0  0  0  0  0
   13.8552    4.6993    0.0000 C   0  0  0  0  0  0  0  0  0  0  0  0
   14.5697    4.2868    0.0000 C   0  0  0  0  0  0  0  0  0  0  0  0
   15.2842    4.6993    0.0000 C   0  0  0  0  0  0  0  0  0  0  0  0
   15.9987    4.2868    0.0000 C   0  0  0  0  0  0  0  0  0  0  0  0
   16.7131    4.6993    0.0000 C   0  0  0  0  0  0  0  0  0  0  0  0
   13.8552    5.5243    0.0000 C   0  0  0  0  0  0  0  0  0  0  0  0
   14.5697    5.9368    0.0000 C   0  0  0  0  0  0  0  0  0  0  0  0
    9.5684    5.5243    0.0000 C   0  0  0  0  0  0  0  0  0  0  0  0
   10.2829    5.9368    0.0000 C   0  0  0  0  0  0  0  0  0  0  0  0
  1  2  1  0  0  0  0
  2  3  1  0  0  0  0
  3  4  1  0  0  0  0
  4  5  1  0  0  0  0
  5  6  1  0  0  0  0
  6  7  1  0  0  0  0
  7  8  1  0  0  0  0
  8  9  1  0  0  0  0
  9 10  1  0  0  0  0
 10 11  1  0  0  0  0
 11 12  1  0  0  0  0
 12 13  1  0  0  0  0
 13 14  1  0  0  0  0
 14 15  1  0  0  0  0
 11 16  1  0  0  0  0
 16 17  1  0  0  0  0
  5 18  1  0  0  0  0
 18 19  1  0  0  0  0
M  END
> <RowID>
471

> <Original_SMILES>
CCCCC(COCOCC(CCCC)CC)CC

> <Canonical_QSARr>
CCCCC(COCOCC(CCCC)CC)CC

> <InChI_Code_QSARr>
InChI=1S/C17H36O2/c1-5-9-11-16(7-3)13-18-15-19-14-17(8-4)12-10-6-2/h16-17H,5-15H2,1-4H3

> <InChI Key_QSARr>
QPIWJVQXEMCELO-UHFFFAOYSA-N

> <Salt_Solvent>


> <Salt_Solvent_ID>
0

> <Number of connected components>
1

$$$$
Molecule_472
  Mrv2316 01072400032D          

  4  3  0  0  0  0            999 V2000
    1.2375    0.7145    0.0000 C   0  0  0  0  0  0  0  0  0  0  0  0
    0.8250   -0.0000    0.0000 C   0  0  0  0  0  0  0  0  0  0  0  0
    1.2375   -0.7145    0.0000 N   0  0  0  0  0  0  0  0  0  0  0  0
    0.0000   -0.0000    0.0000 O   0  0  0  0  0  0  0  0  0  0  0  0
  1  2  1  0  0  0  0
  2  3  1  0  0  0  0
  2  4  2  0  0  0  0
M  END
> <RowID>
472

> <Original_SMILES>
CC(N)=O

> <Canonical_QSARr>
CC(N)=O

> <InChI_Code_QSARr>
InChI=1S/C2H5NO/c1-2(3)4/h1H3,(H2,3,4)

> <InChI Key_QSARr>
DLFVBJFMPXGRIB-UHFFFAOYSA-N

> <Salt_Solvent>


> <Salt_Solvent_ID>
0

> <Number of connected components>
1

$$$$
Molecule_473
  Mrv2316 01072400032D          

  7  7  0  0  0  0            999 V2000
    1.4652   -0.8227    0.0000 C   0  0  0  0  0  0  0  0  0  0  0  0
    0.9803   -0.1553    0.0000 C   0  0  0  0  0  0  0  0  0  0  0  0
    1.2352    0.6294    0.0000 C   0  0  0  0  0  0  0  0  0  0  0  0
    0.5678    1.1143    0.0000 C   0  0  0  0  0  0  0  0  0  0  0  0
    0.5678    1.9393    0.0000 C   0  0  0  0  0  0  0  0  0  0  0  0
   -0.0997    0.6294    0.0000 N   0  0  0  0  0  0  0  0  0  0  0  0
    0.1553   -0.1553    0.0000 N   0  0  0  0  0  0  0  0  0  0  0  0
  1  2  1  0  0  0  0
  3  2  2  0  0  0  0
  4  3  1  0  0  0  0
  4  5  1  0  0  0  0
  6  4  2  0  0  0  0
  7  6  1  0  0  0  0
  2  7  1  0  0  0  0
M  END
> <RowID>
473

> <Original_SMILES>
CC1=CC(C)=NN1

> <Canonical_QSARr>
CC1=CC(C)=NN1

> <InChI_Code_QSARr>
InChI=1S/C5H8N2/c1-4-3-5(2)7-6-4/h3H,1-2H3,(H,6,7)

> <InChI Key_QSARr>
SDXAWLJRERMRKF-UHFFFAOYSA-N

> <Salt_Solvent>


> <Salt_Solvent_ID>
0

> <Number of connected components>
1

$$$$
Molecule_474
  Mrv2316 01072400032D          

  4  3  0  0  0  0            999 V2000
    0.8250   -0.0000    0.0000 C   0  0  0  0  0  0  0  0  0  0  0  0
    1.2375    0.7145    0.0000 O   0  0  0  0  0  0  0  0  0  0  0  0
    1.2375   -0.7145    0.0000 O   0  0  0  0  0  0  0  0  0  0  0  0
    0.0000   -0.0000    0.0000 O   0  0  0  0  0  0  0  0  0  0  0  0
  1  2  1  0  0  0  0
  1  3  2  0  0  0  0
  1  4  1  0  0  0  0
M  END
> <RowID>
474

> <Original_SMILES>
[Mg+2].[O-]C([O-])=O

> <Canonical_QSARr>
OC(O)=O

> <InChI_Code_QSARr>
InChI=1S/CH2O3/c2-1(3)4/h(H2,2,3,4)

> <InChI Key_QSARr>
BVKZGUZCCUSVTD-UHFFFAOYSA-N

> <Salt_Solvent>
[Mg+2]

> <Salt_Solvent_ID>
120

> <Number of connected components>
2

$$$$
Molecule_475
  Mrv2316 01072400032D          

  9  8  0  0  0  0            999 V2000
    1.6500    0.0000    0.0000 C   0  0  0  0  0  0  0  0  0  0  0  0
    0.8250    0.0000    0.0000 N   0  3  0  0  0  0  0  0  0  0  0  0
    0.8250    0.8250    0.0000 C   0  0  0  0  0  0  0  0  0  0  0  0
    1.5395    1.2375    0.0000 C   0  0  0  0  0  0  0  0  0  0  0  0
    1.5395    2.0625    0.0000 C   0  0  0  0  0  0  0  0  0  0  0  0
    0.8250   -0.8250    0.0000 C   0  0  0  0  0  0  0  0  0  0  0  0
    0.1105   -1.2375    0.0000 C   0  0  0  0  0  0  0  0  0  0  0  0
    0.1105   -2.0625    0.0000 C   0  0  0  0  0  0  0  0  0  0  0  0
    0.0000    0.0000    0.0000 C   0  0  0  0  0  0  0  0  0  0  0  0
  1  2  1  0  0  0  0
  2  3  1  0  0  0  0
  3  4  1  0  0  0  0
  4  5  2  0  0  0  0
  2  6  1  0  0  0  0
  6  7  1  0  0  0  0
  7  8  2  0  0  0  0
  2  9  1  0  0  0  0
M  CHG  1   2   1
M  END
> <RowID>
475

> <Original_SMILES>
[Cl-].C[N+](C)(CC=C)CC=C

> <Canonical_QSARr>
C[N+](C)(CC=C)CC=C

> <InChI_Code_QSARr>
InChI=1S/C8H16N/c1-5-7-9(3,4)8-6-2/h5-6H,1-2,7-8H2,3-4H3/q+1

> <InChI Key_QSARr>
YIOJGTBNHQAVBO-UHFFFAOYSA-N

> <Salt_Solvent>
[Cl-]

> <Salt_Solvent_ID>
170

> <Number of connected components>
2

$$$$
Molecule_476
  Mrv2316 01072400032D          

  8  8  0  0  0  0            999 V2000
    2.1434   -0.4125    0.0000 O   0  0  0  0  0  0  0  0  0  0  0  0
    1.4289   -0.0000    0.0000 C   0  0  0  0  0  0  0  0  0  0  0  0
    1.4289    0.8250    0.0000 C   0  0  0  0  0  0  0  0  0  0  0  0
    0.7145    1.2375    0.0000 C   0  0  0  0  0  0  0  0  0  0  0  0
    0.7145    2.0625    0.0000 O   0  0  0  0  0  0  0  0  0  0  0  0
   -0.0000    0.8250    0.0000 N   0  0  0  0  0  0  0  0  0  0  0  0
   -0.0000    0.0000    0.0000 C   0  0  0  0  0  0  0  0  0  0  0  0
    0.7145   -0.4125    0.0000 N   0  0  0  0  0  0  0  0  0  0  0  0
  1  2  1  0  0  0  0
  3  2  1  0  0  0  0
  4  3  2  0  0  0  0
  4  5  1  0  0  0  0
  6  4  1  0  0  0  0
  7  6  2  0  0  0  0
  8  7  1  0  0  0  0
  2  8  2  0  0  0  0
M  END
> <RowID>
476

> <Original_SMILES>
OC1C=C(O)N=CN=1

> <Canonical_QSARr>
OC1C=C(O)N=CN=1

> <InChI_Code_QSARr>
InChI=1S/C4H4N2O2/c7-3-1-4(8)6-2-5-3/h1-2H,(H2,5,6,7,8)

> <InChI Key_QSARr>
DUFGYCAXVIUXIP-UHFFFAOYSA-N

> <Salt_Solvent>


> <Salt_Solvent_ID>
0

> <Number of connected components>
1

$$$$
Molecule_477
  Mrv2316 01072400032D          

 36 35  0  0  0  0            999 V2000
   15.8961   10.0026    0.0000 C   0  0  0  0  0  0  0  0  0  0  0  0
   16.6105   10.4151    0.0000 C   0  0  0  0  0  0  0  0  0  0  0  0
   16.6105   11.2401    0.0000 C   0  0  0  0  0  0  0  0  0  0  0  0
   17.3250   10.0026    0.0000 C   0  0  0  0  0  0  0  0  0  0  0  0
   18.0395   10.4151    0.0000 C   0  0  0  0  0  0  0  0  0  0  0  0
   18.7539   10.0026    0.0000 C   0  0  0  0  0  0  0  0  0  0  0  0
   19.4684   10.4151    0.0000 C   0  0  0  0  0  0  0  0  0  0  0  0
   20.1829   10.0026    0.0000 C   0  0  0  0  0  0  0  0  0  0  0  0
   20.8974   10.4151    0.0000 C   0  0  0  0  0  0  0  0  0  0  0  0
   21.6118   10.0026    0.0000 C   0  0  0  0  0  0  0  0  0  0  0  0
   22.3263   10.4151    0.0000 C   0  0  0  0  0  0  0  0  0  0  0  0
   23.0408   10.0026    0.0000 C   0  0  0  0  0  0  0  0  0  0  0  0
   23.7552   10.4151    0.0000 C   0  0  0  0  0  0  0  0  0  0  0  0
   24.4697   10.0026    0.0000 O   0  0  0  0  0  0  0  0  0  0  0  0
   25.1842   10.4151    0.0000 C   0  0  0  0  0  0  0  0  0  0  0  0
   25.1842   11.2401    0.0000 O   0  0  0  0  0  0  0  0  0  0  0  0
   25.8986   10.0026    0.0000 C   0  0  0  0  0  0  0  0  0  0  0  0
   26.6131   10.4151    0.0000 C   0  0  0  0  0  0  0  0  0  0  0  0
   27.3276   10.0026    0.0000 C   0  0  0  0  0  0  0  0  0  0  0  0
   28.0421   10.4151    0.0000 C   0  0  0  0  0  0  0  0  0  0  0  0
   28.7565   10.0026    0.0000 C   0  0  0  0  0  0  0  0  0  0  0  0
   28.7565    9.1776    0.0000 O   0  0  0  0  0  0  0  0  0  0  0  0
   29.4710   10.4151    0.0000 O   0  0  0  0  0  0  0  0  0  0  0  0
   30.1855   10.0026    0.0000 C   0  0  0  0  0  0  0  0  0  0  0  0
   30.8999   10.4151    0.0000 C   0  0  0  0  0  0  0  0  0  0  0  0
   31.6144   10.0026    0.0000 C   0  0  0  0  0  0  0  0  0  0  0  0
   32.3289   10.4151    0.0000 C   0  0  0  0  0  0  0  0  0  0  0  0
   33.0434   10.0026    0.0000 C   0  0  0  0  0  0  0  0  0  0  0  0
   33.7578   10.4151    0.0000 C   0  0  0  0  0  0  0  0  0  0  0  0
   34.4723   10.0026    0.0000 C   0  0  0  0  0  0  0  0  0  0  0  0
   35.1868   10.4151    0.0000 C   0  0  0  0  0  0  0  0  0  0  0  0
   35.9012   10.0026    0.0000 C   0  0  0  0  0  0  0  0  0  0  0  0
   36.6157   10.4151    0.0000 C   0  0  0  0  0  0  0  0  0  0  0  0
   37.3302   10.0026    0.0000 C   0  0  0  0  0  0  0  0  0  0  0  0
   38.0447   10.4151    0.0000 C   0  0  0  0  0  0  0  0  0  0  0  0
   37.3302    9.1776    0.0000 C   0  0  0  0  0  0  0  0  0  0  0  0
  1  2  1  0  0  0  0
  2  3  1  0  0  0  0
  2  4  1  0  0  0  0
  4  5  1  0  0  0  0
  5  6  1  0  0  0  0
  6  7  1  0  0  0  0
  7  8  1  0  0  0  0
  8  9  1  0  0  0  0
  9 10  1  0  0  0  0
 10 11  1  0  0  0  0
 11 12  1  0  0  0  0
 12 13  1  0  0  0  0
 13 14  1  0  0  0  0
 14 15  1  0  0  0  0
 15 16  2  0  0  0  0
 15 17  1  0  0  0  0
 17 18  1  0  0  0  0
 18 19  1  0  0  0  0
 19 20  1  0  0  0  0
 20 21  1  0  0  0  0
 21 22  2  0  0  0  0
 21 23  1  0  0  0  0
 23 24  1  0  0  0  0
 24 25  1  0  0  0  0
 25 26  1  0  0  0  0
 26 27  1  0  0  0  0
 27 28  1  0  0  0  0
 28 29  1  0  0  0  0
 29 30  1  0  0  0  0
 30 31  1  0  0  0  0
 31 32  1  0  0  0  0
 32 33  1  0  0  0  0
 33 34  1  0  0  0  0
 34 35  1  0  0  0  0
 34 36  1  0  0  0  0
M  END
> <RowID>
477

> <Original_SMILES>
CC(C)CCCCCCCCCCOC(=O)CCCCC(=O)OCCCCCCCCCCC(C)C

> <Canonical_QSARr>
CC(C)CCCCCCCCCCOC(=O)CCCCC(=O)OCCCCCCCCCCC(C)C

> <InChI_Code_QSARr>
InChI=1S/C32H62O4/c1-29(2)23-17-13-9-5-7-11-15-21-27-35-31(33)25-19-20-26-32(34)36-28-22-16-12-8-6-10-14-18-24-30(3)4/h29-30H,5-28H2,1-4H3

> <InChI Key_QSARr>
WPUKZOKYKHYASK-UHFFFAOYSA-N

> <Salt_Solvent>


> <Salt_Solvent_ID>
0

> <Number of connected components>
1

$$$$
Molecule_479
  Mrv2316 01072400032D          

 20 20  0  0  0  0            999 V2000
    3.5723   -2.3513    0.0000 C   0  0  0  0  0  0  0  0  0  0  0  0
    3.5723   -1.5263    0.0000 C   0  0  0  0  0  0  0  0  0  0  0  0
    2.8579   -1.1138    0.0000 N   0  0  0  0  0  0  0  0  0  0  0  0
    2.1434   -1.5263    0.0000 C   0  0  0  0  0  0  0  0  0  0  0  0
    1.4289   -1.1138    0.0000 C   0  0  0  0  0  0  0  0  0  0  0  0
    2.8579   -0.2888    0.0000 C   0  0  0  0  0  0  0  0  0  0  0  0
    3.5723    0.1237    0.0000 O   0  0  0  0  0  0  0  0  0  0  0  0
    2.1434    0.1237    0.0000 C   0  0  0  0  0  0  0  0  0  0  0  0
    2.1434    0.9488    0.0000 C   0  0  0  0  0  0  0  0  0  0  0  0
    1.4289    1.3613    0.0000 N   0  3  0  0  0  0  0  0  0  0  0  0
    1.4289    2.1863    0.0000 C   0  0  0  0  0  0  0  0  0  0  0  0
    0.7145    2.5987    0.0000 C   0  0  0  0  0  0  0  0  0  0  0  0
    0.7145    3.4237    0.0000 C   0  0  0  0  0  0  0  0  0  0  0  0
   -0.0000    3.8362    0.0000 S   0  0  0  0  0  0  0  0  0  0  0  0
   -0.7145    4.2488    0.0000 O   0  5  0  0  0  0  0  0  0  0  0  0
    0.4125    4.5507    0.0000 O   0  0  0  0  0  0  0  0  0  0  0  0
   -0.4125    3.1218    0.0000 O   0  0  0  0  0  0  0  0  0  0  0  0
    0.7145    0.9488    0.0000 C   0  0  0  0  0  0  0  0  0  0  0  0
    0.7145    0.1238    0.0000 C   0  0  0  0  0  0  0  0  0  0  0  0
    1.4289   -0.2887    0.0000 C   0  0  0  0  0  0  0  0  0  0  0  0
  1  2  1  0  0  0  0
  2  3  1  0  0  0  0
  3  4  1  0  0  0  0
  4  5  1  0  0  0  0
  3  6  1  0  0  0  0
  6  7  2  0  0  0  0
  6  8  1  0  0  0  0
  9  8  2  0  0  0  0
 10  9  1  0  0  0  0
 10 11  1  0  0  0  0
 11 12  1  0  0  0  0
 12 13  1  0  0  0  0
 13 14  1  0  0  0  0
 14 15  1  0  0  0  0
 14 16  2  0  0  0  0
 14 17  2  0  0  0  0
 18 10  2  0  0  0  0
 19 18  1  0  0  0  0
 20 19  2  0  0  0  0
  8 20  1  0  0  0  0
M  CHG  2  10   1  15  -1
M  END
> <RowID>
479

> <Original_SMILES>
CCN(CC)C(=O)C1=C[N+](CCCS([O-])(=O)=O)=CC=C1

> <Canonical_QSARr>
CCN(CC)C(=O)C1=C[N+](CCCS([O-])(=O)=O)=CC=C1

> <InChI_Code_QSARr>
InChI=1S/C13H20N2O4S/c1-3-15(4-2)13(16)12-7-5-8-14(11-12)9-6-10-20(17,18)19/h5,7-8,11H,3-4,6,9-10H2,1-2H3

> <InChI Key_QSARr>
ADBPXBUMJVOHEH-UHFFFAOYSA-N

> <Salt_Solvent>


> <Salt_Solvent_ID>
0

> <Number of connected components>
1

$$$$
Molecule_480
  Mrv2316 01072400032D          

 10  9  0  0  0  0            999 V2000
   -3.0493    0.7145    0.0000 C   0  0  0  0  0  0  0  0  0  0  0  0
   -2.3349    1.1270    0.0000 O   0  0  0  0  0  0  0  0  0  0  0  0
   -1.6204    0.7145    0.0000 C   0  0  0  0  0  0  0  0  0  0  0  0
   -0.9059    1.1270    0.0000 C   0  0  0  0  0  0  0  0  0  0  0  0
   -0.1914    0.7145    0.0000 C   0  0  0  0  0  0  0  0  0  0  0  0
    0.5230    1.1270    0.0000 C   0  0  0  0  0  0  0  0  0  0  0  0
    1.2375    0.7145    0.0000 C   0  0  0  0  0  0  0  0  0  0  0  0
    1.9520    1.1270    0.0000 C   0  0  0  0  0  0  0  0  0  0  0  0
    2.6664    0.7145    0.0000 C   0  0  0  0  0  0  0  0  0  0  0  0
    3.3809    1.1270    0.0000 C   0  0  0  0  0  0  0  0  0  0  0  0
  1  2  1  0  0  0  0
  2  3  1  0  0  0  0
  4  3  1  4  0  0  0
  4  5  2  0  0  0  0
  5  6  1  0  0  0  0
  6  7  1  0  0  0  0
  7  8  1  0  0  0  0
  8  9  1  0  0  0  0
  9 10  2  0  0  0  0
M  END
> <RowID>
480

> <Original_SMILES>
COCC=CCCCC=C

> <Canonical_QSARr>
COCC=CCCCC=C

> <InChI_Code_QSARr>
InChI=1S/C9H16O/c1-3-4-5-6-7-8-9-10-2/h3,7-8H,1,4-6,9H2,2H3

> <InChI Key_QSARr>
MIJJHRIQVWIQGL-UHFFFAOYSA-N

> <Salt_Solvent>


> <Salt_Solvent_ID>
0

> <Number of connected components>
1

$$$$
Molecule_481
  Mrv2316 01072400032D          

  5  4  0  0  0  0            999 V2000
    2.0625   -0.7145    0.0000 O   0  0  0  0  0  0  0  0  0  0  0  0
    1.2375   -0.7145    0.0000 C   0  0  0  0  0  0  0  0  0  0  0  0
    0.8250   -1.4289    0.0000 O   0  0  0  0  0  0  0  0  0  0  0  0
    0.8250   -0.0000    0.0000 C   0  0  0  0  0  0  0  0  0  0  0  0
    0.0000   -0.0000    0.0000 C   0  0  0  0  0  0  0  0  0  0  0  0
  1  2  1  0  0  0  0
  2  3  2  0  0  0  0
  2  4  1  0  0  0  0
  4  5  2  0  0  0  0
M  END
> <RowID>
481

> <Original_SMILES>
[Mg+2].C=CC([O-])=O.C=CC([O-])=O

> <Canonical_QSARr>
C=CC(O)=O

> <InChI_Code_QSARr>
InChI=1S/C3H4O2/c1-2-3(4)5/h2H,1H2,(H,4,5)

> <InChI Key_QSARr>
NIXOWILDQLNWCW-UHFFFAOYSA-N

> <Salt_Solvent>
[Mg+2]

> <Salt_Solvent_ID>
120

> <Number of connected components>
3

$$$$
Molecule_482
  Mrv2316 01072400032D          

 26 28  0  0  0  0            999 V2000
   -0.0000   -2.4750    0.0000 O   0  0  0  0  0  0  0  0  0  0  0  0
    0.7145   -2.8875    0.0000 C   0  0  0  0  0  0  0  0  0  0  0  0
    0.7145   -3.7125    0.0000 O   0  0  0  0  0  0  0  0  0  0  0  0
    1.4289   -2.4750    0.0000 C   0  0  0  0  0  0  0  0  0  0  0  0
    1.4289   -1.6500    0.0000 C   0  0  0  0  0  0  0  0  0  0  0  0
    2.1434   -1.2375    0.0000 C   0  0  0  0  0  0  0  0  0  0  0  0
    2.1434   -0.4125    0.0000 N   0  0  0  0  0  0  0  0  0  0  0  0
    1.4289    0.0000    0.0000 C   0  0  0  0  0  0  0  0  0  0  0  0
    1.4289    0.8250    0.0000 C   0  0  0  0  0  0  0  0  0  0  0  0
    0.7145    1.2375    0.0000 C   0  0  0  0  0  0  0  0  0  0  0  0
   -0.0000    0.8250    0.0000 C   0  0  0  0  0  0  0  0  0  0  0  0
   -0.0000    0.0000    0.0000 C   0  0  0  0  0  0  0  0  0  0  0  0
    0.7145   -0.4125    0.0000 C   0  0  0  0  0  0  0  0  0  0  0  0
    2.8579   -1.6500    0.0000 C   0  0  0  0  0  0  0  0  0  0  0  0
    3.5724   -1.2375    0.0000 C   0  0  0  0  0  0  0  0  0  0  0  0
    4.2868   -1.6500    0.0000 O   0  0  0  0  0  0  0  0  0  0  0  0
    3.5724   -0.4125    0.0000 O   0  0  0  0  0  0  0  0  0  0  0  0
    2.8579   -2.4750    0.0000 C   0  0  0  0  0  0  0  0  0  0  0  0
    2.1434   -2.8875    0.0000 C   0  0  0  0  0  0  0  0  0  0  0  0
    2.1434   -3.7125    0.0000 N   0  0  0  0  0  0  0  0  0  0  0  0
    2.8579   -4.1250    0.0000 C   0  0  0  0  0  0  0  0  0  0  0  0
    2.8579   -4.9500    0.0000 C   0  0  0  0  0  0  0  0  0  0  0  0
    3.5724   -5.3625    0.0000 C   0  0  0  0  0  0  0  0  0  0  0  0
    4.2868   -4.9500    0.0000 C   0  0  0  0  0  0  0  0  0  0  0  0
    4.2868   -4.1250    0.0000 C   0  0  0  0  0  0  0  0  0  0  0  0
    3.5724   -3.7125    0.0000 C   0  0  0  0  0  0  0  0  0  0  0  0
  1  2  1  0  0  0  0
  2  3  2  0  0  0  0
  2  4  1  0  0  0  0
  5  4  1  0  0  0  0
  6  5  2  0  0  0  0
  6  7  1  0  0  0  0
  7  8  1  0  0  0  0
  9  8  1  0  0  0  0
 10  9  2  0  0  0  0
 11 10  1  0  0  0  0
 12 11  2  0  0  0  0
 13 12  1  0  0  0  0
  8 13  2  0  0  0  0
 14  6  1  0  0  0  0
 14 15  1  0  0  0  0
 15 16  1  0  0  0  0
 15 17  2  0  0  0  0
 18 14  2  0  0  0  0
 19 18  1  0  0  0  0
  4 19  2  0  0  0  0
 19 20  1  0  0  0  0
 20 21  1  0  0  0  0
 22 21  1  0  0  0  0
 23 22  2  0  0  0  0
 24 23  1  0  0  0  0
 25 24  2  0  0  0  0
 26 25  1  0  0  0  0
 21 26  2  0  0  0  0
M  END
> <RowID>
482

> <Original_SMILES>
OC(=O)C1C=C(NC2C=CC=CC=2)C(=CC=1NC1C=CC=CC=1)C(O)=O

> <Canonical_QSARr>
OC(=O)C1C=C(NC2C=CC=CC=2)C(=CC=1NC1C=CC=CC=1)C(O)=O

> <InChI_Code_QSARr>
InChI=1S/C20H16N2O4/c23-19(24)15-12-18(22-14-9-5-2-6-10-14)16(20(25)26)11-17(15)21-13-7-3-1-4-8-13/h1-12,21-22H,(H,23,24)(H,25,26)

> <InChI Key_QSARr>
ZJQZWNLKRBUEKX-UHFFFAOYSA-N

> <Salt_Solvent>


> <Salt_Solvent_ID>
0

> <Number of connected components>
1

$$$$
Molecule_483
  Mrv2316 01072400032D          

 19 18  0  0  0  0            999 V2000
    7.2336    5.0013    0.0000 C   0  0  0  0  0  0  0  0  0  0  0  0
    7.9481    5.4138    0.0000 C   0  0  0  0  0  0  0  0  0  0  0  0
    8.6625    5.0013    0.0000 C   0  0  0  0  0  0  0  0  0  0  0  0
    9.3770    5.4138    0.0000 C   0  0  0  0  0  0  0  0  0  0  0  0
   10.0915    5.0013    0.0000 C   0  0  0  0  0  0  0  0  0  0  0  0
   10.8059    5.4138    0.0000 C   0  0  0  0  0  0  0  0  0  0  0  0
   11.5204    5.0013    0.0000 C   0  0  0  0  0  0  0  0  0  0  0  0
   12.2349    5.4138    0.0000 C   0  0  0  0  0  0  0  0  0  0  0  0
   12.9494    5.0013    0.0000 C   0  0  0  0  0  0  0  0  0  0  0  0
   13.6638    5.4138    0.0000 C   0  0  0  0  0  0  0  0  0  0  0  0
   14.3783    5.0013    0.0000 C   0  0  0  0  0  0  0  0  0  0  0  0
   15.0928    5.4138    0.0000 C   0  0  0  0  0  0  0  0  0  0  0  0
   15.8072    5.0013    0.0000 C   0  0  0  0  0  0  0  0  0  0  0  0
   16.5217    5.4138    0.0000 C   0  0  0  0  0  0  0  0  0  0  0  0
   17.2362    5.0013    0.0000 C   0  0  0  0  0  0  0  0  0  0  0  0
   17.9507    5.4138    0.0000 C   0  0  0  0  0  0  0  0  0  0  0  0
   18.6651    5.0013    0.0000 N   0  0  0  0  0  0  0  0  0  0  0  0
   19.3796    5.4138    0.0000 C   0  0  0  0  0  0  0  0  0  0  0  0
   18.6651    4.1763    0.0000 C   0  0  0  0  0  0  0  0  0  0  0  0
  1  2  1  0  0  0  0
  2  3  1  0  0  0  0
  3  4  1  0  0  0  0
  4  5  1  0  0  0  0
  5  6  1  0  0  0  0
  6  7  1  0  0  0  0
  7  8  1  0  0  0  0
  8  9  1  0  0  0  0
  9 10  1  0  0  0  0
 10 11  1  0  0  0  0
 11 12  1  0  0  0  0
 12 13  1  0  0  0  0
 13 14  1  0  0  0  0
 14 15  1  0  0  0  0
 15 16  1  0  0  0  0
 16 17  1  0  0  0  0
 17 18  1  0  0  0  0
 17 19  1  0  0  0  0
M  END
> <RowID>
483

> <Original_SMILES>
CCCCCCCCCCCCCCCCN(C)C

> <Canonical_QSARr>
CCCCCCCCCCCCCCCCN(C)C

> <InChI_Code_QSARr>
InChI=1S/C18H39N/c1-4-5-6-7-8-9-10-11-12-13-14-15-16-17-18-19(2)3/h4-18H2,1-3H3

> <InChI Key_QSARr>
NHLUVTZJQOJKCC-UHFFFAOYSA-N

> <Salt_Solvent>


> <Salt_Solvent_ID>
0

> <Number of connected components>
1

$$$$
Molecule_484
  Mrv2316 01072400032D          

 26 29  0  0  0  0            999 V2000
    0.7846   -0.2549    0.0000 N   0  0  0  0  0  0  0  0  0  0  0  0
    1.2695    0.4125    0.0000 C   0  0  0  0  0  0  0  0  0  0  0  0
    1.0146    1.1971    0.0000 O   0  0  0  0  0  0  0  0  0  0  0  0
    2.0542    0.1576    0.0000 C   0  0  0  0  0  0  0  0  0  0  0  0
    2.8388    0.4125    0.0000 C   0  0  0  0  0  0  0  0  0  0  0  0
    3.0937    1.1971    0.0000 C   0  0  0  0  0  0  0  0  0  0  0  0
    3.9007    1.3687    0.0000 C   0  0  0  0  0  0  0  0  0  0  0  0
    4.1556    2.1533    0.0000 C   0  0  0  0  0  0  0  0  0  0  0  0
    4.9626    2.3248    0.0000 C   0  0  0  0  0  0  0  0  0  0  0  0
    5.7696    2.4963    0.0000 N   0  0  0  0  0  0  0  0  0  0  0  0
    3.6036    2.7664    0.0000 C   0  0  0  0  0  0  0  0  0  0  0  0
    2.7966    2.5948    0.0000 C   0  0  0  0  0  0  0  0  0  0  0  0
    2.5417    1.8102    0.0000 C   0  0  0  0  0  0  0  0  0  0  0  0
    3.3237   -0.2549    0.0000 N   0  0  0  0  0  0  0  0  0  0  0  0
    2.8388   -0.9224    0.0000 C   0  0  0  0  0  0  0  0  0  0  0  0
    3.0937   -1.7070    0.0000 O   0  0  0  0  0  0  0  0  0  0  0  0
    2.0542   -0.6674    0.0000 C   0  0  0  0  0  0  0  0  0  0  0  0
    1.2695   -0.9224    0.0000 C   0  0  0  0  0  0  0  0  0  0  0  0
    1.0146   -1.7070    0.0000 C   0  0  0  0  0  0  0  0  0  0  0  0
    0.2076   -1.8785    0.0000 C   0  0  0  0  0  0  0  0  0  0  0  0
   -0.0473   -2.6631    0.0000 C   0  0  0  0  0  0  0  0  0  0  0  0
   -0.8543   -2.8347    0.0000 C   0  0  0  0  0  0  0  0  0  0  0  0
   -1.6613   -3.0062    0.0000 N   0  0  0  0  0  0  0  0  0  0  0  0
    0.5047   -3.2762    0.0000 C   0  0  0  0  0  0  0  0  0  0  0  0
    1.3117   -3.1047    0.0000 C   0  0  0  0  0  0  0  0  0  0  0  0
    1.5666   -2.3201    0.0000 C   0  0  0  0  0  0  0  0  0  0  0  0
  2  1  1  0  0  0  0
  2  3  2  0  0  0  0
  4  2  1  0  0  0  0
  4  5  2  0  0  0  0
  5  6  1  0  0  0  0
  7  6  1  0  0  0  0
  8  7  2  0  0  0  0
  8  9  1  0  0  0  0
  9 10  3  0  0  0  0
 11  8  1  0  0  0  0
 12 11  2  0  0  0  0
 13 12  1  0  0  0  0
  6 13  2  0  0  0  0
  5 14  1  0  0  0  0
 14 15  1  0  0  0  0
 15 16  2  0  0  0  0
 15 17  1  0  0  0  0
 17  4  1  0  0  0  0
 18 17  1  0  0  0  0
  1 18  2  0  0  0  0
 18 19  1  0  0  0  0
 20 19  2  0  0  0  0
 21 20  1  0  0  0  0
 21 22  1  0  0  0  0
 22 23  3  0  0  0  0
 24 21  2  0  0  0  0
 25 24  1  0  0  0  0
 26 25  2  0  0  0  0
 19 26  1  0  0  0  0
M  END
> <RowID>
484

> <Original_SMILES>
N#CC1=CC(=CC=C1)C1NC(=O)C2C=1C(=O)NC=2C1=CC(=CC=C1)C#N

> <Canonical_QSARr>
N#CC1=CC(=CC=C1)C1NC(=O)C2C=1C(=O)N=C2C1=CC(=CC=C1)C#N

> <InChI_Code_QSARr>
InChI=1S/C20H10N4O2/c21-9-11-3-1-5-13(7-11)17-15-16(20(26)23-17)18(24-19(15)25)14-6-2-4-12(8-14)10-22/h1-8,15H,(H,24,25)

> <InChI Key_QSARr>
IBHROEAVFSSQRT-UHFFFAOYSA-N

> <Salt_Solvent>


> <Salt_Solvent_ID>
0

> <Number of connected components>
1

$$$$
Molecule_485
  Mrv2316 01072400032D          

 13 13  0  0  0  0            999 V2000
   -2.1984    1.1423    0.0000 O   0  0  0  0  0  0  0  0  0  0  0  0
   -1.4839    0.7298    0.0000 C   0  0  0  0  0  0  0  0  0  0  0  0
   -1.4839   -0.0952    0.0000 O   0  0  0  0  0  0  0  0  0  0  0  0
   -0.7694    1.1423    0.0000 C   0  0  0  0  0  0  0  0  0  0  0  0
   -0.0550    0.7298    0.0000 O   0  0  0  0  0  0  0  0  0  0  0  0
    0.6595    1.1423    0.0000 C   0  0  0  0  0  0  0  0  0  0  0  0
    1.3740    0.7298    0.0000 C   0  0  0  0  0  0  0  0  0  0  0  0
    2.0884    1.1423    0.0000 C   0  0  0  0  0  0  0  0  0  0  0  0
    2.0884    1.9673    0.0000 C   0  0  0  0  0  0  0  0  0  0  0  0
    1.3740    2.3798    0.0000 C   0  0  0  0  0  0  0  0  0  0  0  0
    1.3740    3.2048    0.0000 Cl  0  0  0  0  0  0  0  0  0  0  0  0
    0.6595    1.9673    0.0000 C   0  0  0  0  0  0  0  0  0  0  0  0
   -0.0550    2.3798    0.0000 Cl  0  0  0  0  0  0  0  0  0  0  0  0
  1  2  1  0  0  0  0
  2  3  2  0  0  0  0
  2  4  1  0  0  0  0
  4  5  1  0  0  0  0
  5  6  1  0  0  0  0
  7  6  1  0  0  0  0
  8  7  2  0  0  0  0
  9  8  1  0  0  0  0
 10  9  2  0  0  0  0
 10 11  1  0  0  0  0
 12 10  1  0  0  0  0
  6 12  2  0  0  0  0
 12 13  1  0  0  0  0
M  END
> <RowID>
485

> <Original_SMILES>
OC(=O)COC1C=CC=C(Cl)C=1Cl

> <Canonical_QSARr>
OC(=O)COC1C=CC=C(Cl)C=1Cl

> <InChI_Code_QSARr>
InChI=1S/C8H6Cl2O3/c9-5-2-1-3-6(8(5)10)13-4-7(11)12/h1-3H,4H2,(H,11,12)

> <InChI Key_QSARr>
RBJIGQRZLITQJG-UHFFFAOYSA-N

> <Salt_Solvent>


> <Salt_Solvent_ID>
0

> <Number of connected components>
1

$$$$
Molecule_486
  Mrv2316 01072400032D          

  7  6  0  0  0  0            999 V2000
    1.7605    1.8414    0.0000 C   0  0  0  0  0  0  0  0  0  0  0  0
    2.4750    1.4289    0.0000 C   0  0  0  0  0  0  0  0  0  0  0  0
    3.1895    1.8414    0.0000 C   0  0  0  0  0  0  0  0  0  0  0  0
    3.9039    1.4289    0.0000 C   0  0  0  0  0  0  0  0  0  0  0  0
    4.6184    1.8414    0.0000 O   0  0  0  0  0  0  0  0  0  0  0  0
    5.3329    1.4289    0.0000 C   0  0  0  0  0  0  0  0  0  0  0  0
    6.0474    1.8414    0.0000 C   0  0  0  0  0  0  0  0  0  0  0  0
  1  2  1  0  0  0  0
  2  3  1  0  0  0  0
  3  4  1  0  0  0  0
  4  5  1  0  0  0  0
  5  6  1  0  0  0  0
  6  7  2  0  0  0  0
M  END
> <RowID>
486

> <Original_SMILES>
CCCCOC=C

> <Canonical_QSARr>
CCCCOC=C

> <InChI_Code_QSARr>
InChI=1S/C6H12O/c1-3-5-6-7-4-2/h4H,2-3,5-6H2,1H3

> <InChI Key_QSARr>
UZKWTJUDCOPSNM-UHFFFAOYSA-N

> <Salt_Solvent>


> <Salt_Solvent_ID>
0

> <Number of connected components>
1

$$$$
Molecule_490
  Mrv2316 01072400032D          

 27 28  0  0  0  0            999 V2000
   -6.4302   -9.0597    0.0000 C   0  0  0  0  0  0  0  0  0  0  0  0
   -5.7157   -8.6472    0.0000 C   0  0  0  0  0  0  0  0  0  0  0  0
   -5.0013   -9.0597    0.0000 C   0  0  0  0  0  0  0  0  0  0  0  0
   -5.0013   -9.8847    0.0000 O   0  0  0  0  0  0  0  0  0  0  0  0
   -4.2868   -8.6472    0.0000 O   0  0  0  0  0  0  0  0  0  0  0  0
   -3.5723   -9.0597    0.0000 C   0  0  0  0  0  0  0  0  0  0  0  0
   -2.8579   -8.6472    0.0000 C   0  0  0  0  0  0  0  0  0  0  0  0
   -2.1434   -9.0597    0.0000 C   0  0  0  0  0  0  0  0  0  0  0  0
   -1.4289   -8.6472    0.0000 C   0  0  0  0  0  0  0  0  0  0  0  0
   -0.7144   -9.0597    0.0000 O   0  0  0  0  0  0  0  0  0  0  0  0
    0.0000   -8.6472    0.0000 C   0  0  0  0  0  0  0  0  0  0  0  0
    0.0000   -7.8222    0.0000 O   0  0  0  0  0  0  0  0  0  0  0  0
    0.7145   -9.0597    0.0000 O   0  0  0  0  0  0  0  0  0  0  0  0
    1.4290   -8.6472    0.0000 C   0  0  0  0  0  0  0  0  0  0  0  0
    2.1434   -9.0597    0.0000 C   0  0  0  0  0  0  0  0  0  0  0  0
    2.8579   -8.6472    0.0000 C   0  0  0  0  0  0  0  0  0  0  0  0
    2.8579   -7.8222    0.0000 C   0  0  0  0  0  0  0  0  0  0  0  0
    3.5724   -7.4097    0.0000 C   0  0  0  0  0  0  0  0  0  0  0  0
    3.5724   -6.5847    0.0000 O   0  0  0  0  0  0  0  0  0  0  0  0
    4.2869   -7.8222    0.0000 C   0  0  0  0  0  0  0  0  0  0  0  0
    4.2869   -8.6472    0.0000 C   0  0  0  0  0  0  0  0  0  0  0  0
    5.0013   -9.0597    0.0000 C   0  0  0  0  0  0  0  0  0  0  0  0
    5.7158   -8.6472    0.0000 C   0  0  0  0  0  0  0  0  0  0  0  0
    5.7158   -7.8222    0.0000 C   0  0  0  0  0  0  0  0  0  0  0  0
    5.0013   -7.4097    0.0000 C   0  0  0  0  0  0  0  0  0  0  0  0
    2.1434   -7.4097    0.0000 C   0  0  0  0  0  0  0  0  0  0  0  0
    1.4290   -7.8222    0.0000 C   0  0  0  0  0  0  0  0  0  0  0  0
  1  2  2  0  0  0  0
  2  3  1  0  0  0  0
  3  4  2  0  0  0  0
  3  5  1  0  0  0  0
  5  6  1  0  0  0  0
  6  7  1  0  0  0  0
  7  8  1  0  0  0  0
  8  9  1  0  0  0  0
  9 10  1  0  0  0  0
 10 11  1  0  0  0  0
 11 12  2  0  0  0  0
 11 13  1  0  0  0  0
 13 14  1  0  0  0  0
 15 14  1  0  0  0  0
 16 15  2  0  0  0  0
 17 16  1  0  0  0  0
 17 18  1  0  0  0  0
 18 19  2  0  0  0  0
 18 20  1  0  0  0  0
 21 20  1  0  0  0  0
 22 21  2  0  0  0  0
 23 22  1  0  0  0  0
 24 23  2  0  0  0  0
 25 24  1  0  0  0  0
 20 25  2  0  0  0  0
 26 17  2  0  0  0  0
 27 26  1  0  0  0  0
 14 27  2  0  0  0  0
M  END
> <RowID>
490

> <Original_SMILES>
C=CC(=O)OCCCCOC(=O)OC1C=CC(=CC=1)C(=O)C1C=CC=CC=1

> <Canonical_QSARr>
C=CC(=O)OCCCCOC(=O)OC1C=CC(=CC=1)C(=O)C1C=CC=CC=1

> <InChI_Code_QSARr>
InChI=1S/C21H20O6/c1-2-19(22)25-14-6-7-15-26-21(24)27-18-12-10-17(11-13-18)20(23)16-8-4-3-5-9-16/h2-5,8-13H,1,6-7,14-15H2

> <InChI Key_QSARr>
XEJDJFHDOJHPJB-UHFFFAOYSA-N

> <Salt_Solvent>


> <Salt_Solvent_ID>
0

> <Number of connected components>
1

$$$$
Molecule_491
  Mrv2316 01072400032D          

 39 38  0  0  0  0            999 V2000
    0.8547   -4.6184    0.0000 C   0  0  0  0  0  0  0  0  0  0  0  0
    1.5691   -4.2059    0.0000 C   0  0  0  0  0  0  0  0  0  0  0  0
    1.5691   -3.3809    0.0000 C   0  0  0  0  0  0  0  0  0  0  0  0
    2.3941   -3.3809    0.0000 C   0  0  0  0  0  0  0  0  0  0  0  0
    2.8066   -4.0954    0.0000 O   0  0  0  0  0  0  0  0  0  0  0  0
    3.6316   -4.0954    0.0000 C   0  0  0  0  0  0  0  0  0  0  0  0
    4.0441   -3.3809    0.0000 O   0  0  0  0  0  0  0  0  0  0  0  0
    4.0441   -4.8099    0.0000 C   0  0  0  0  0  0  0  0  0  0  0  0
    4.8691   -4.8099    0.0000 C   0  0  0  0  0  0  0  0  0  0  0  0
    5.2816   -5.5243    0.0000 C   0  0  0  0  0  0  0  0  0  0  0  0
    6.1066   -5.5243    0.0000 C   0  0  0  0  0  0  0  0  0  0  0  0
    6.5191   -6.2388    0.0000 C   0  0  0  0  0  0  0  0  0  0  0  0
    7.3441   -6.2388    0.0000 C   0  0  0  0  0  0  0  0  0  0  0  0
    7.7566   -6.9533    0.0000 C   0  0  0  0  0  0  0  0  0  0  0  0
    8.5816   -6.9533    0.0000 C   0  0  0  0  0  0  0  0  0  0  0  0
    0.7441   -3.3809    0.0000 C   0  0  0  0  0  0  0  0  0  0  0  0
    0.3316   -2.6664    0.0000 O   0  0  0  0  0  0  0  0  0  0  0  0
   -0.4934   -2.6664    0.0000 C   0  0  0  0  0  0  0  0  0  0  0  0
   -0.9059   -3.3809    0.0000 O   0  0  0  0  0  0  0  0  0  0  0  0
   -0.9059   -1.9520    0.0000 C   0  0  0  0  0  0  0  0  0  0  0  0
   -1.7309   -1.9520    0.0000 C   0  0  0  0  0  0  0  0  0  0  0  0
   -2.1434   -1.2375    0.0000 C   0  0  0  0  0  0  0  0  0  0  0  0
   -2.9684   -1.2375    0.0000 C   0  0  0  0  0  0  0  0  0  0  0  0
   -3.3809   -0.5230    0.0000 C   0  0  0  0  0  0  0  0  0  0  0  0
   -4.2059   -0.5230    0.0000 C   0  0  0  0  0  0  0  0  0  0  0  0
   -4.6184    0.1914    0.0000 C   0  0  0  0  0  0  0  0  0  0  0  0
   -5.4434    0.1914    0.0000 C   0  0  0  0  0  0  0  0  0  0  0  0
    1.5691   -2.5559    0.0000 C   0  0  0  0  0  0  0  0  0  0  0  0
    2.2836   -2.1434    0.0000 O   0  0  0  0  0  0  0  0  0  0  0  0
    2.9981   -2.5559    0.0000 C   0  0  0  0  0  0  0  0  0  0  0  0
    2.9981   -3.3809    0.0000 O   0  0  0  0  0  0  0  0  0  0  0  0
    3.7126   -2.1434    0.0000 C   0  0  0  0  0  0  0  0  0  0  0  0
    4.4270   -2.5559    0.0000 C   0  0  0  0  0  0  0  0  0  0  0  0
    5.1415   -2.1434    0.0000 C   0  0  0  0  0  0  0  0  0  0  0  0
    5.8560   -2.5559    0.0000 C   0  0  0  0  0  0  0  0  0  0  0  0
    6.5704   -2.1434    0.0000 C   0  0  0  0  0  0  0  0  0  0  0  0
    7.2849   -2.5559    0.0000 C   0  0  0  0  0  0  0  0  0  0  0  0
    7.9994   -2.1434    0.0000 C   0  0  0  0  0  0  0  0  0  0  0  0
    8.7138   -2.5559    0.0000 C   0  0  0  0  0  0  0  0  0  0  0  0
  1  2  1  0  0  0  0
  2  3  1  0  0  0  0
  3  4  1  0  0  0  0
  4  5  1  0  0  0  0
  5  6  1  0  0  0  0
  6  7  2  0  0  0  0
  6  8  1  0  0  0  0
  8  9  1  0  0  0  0
  9 10  1  0  0  0  0
 10 11  1  0  0  0  0
 11 12  1  0  0  0  0
 12 13  1  0  0  0  0
 13 14  1  0  0  0  0
 14 15  1  0  0  0  0
  3 16  1  0  0  0  0
 16 17  1  0  0  0  0
 17 18  1  0  0  0  0
 18 19  2  0  0  0  0
 18 20  1  0  0  0  0
 20 21  1  0  0  0  0
 21 22  1  0  0  0  0
 22 23  1  0  0  0  0
 23 24  1  0  0  0  0
 24 25  1  0  0  0  0
 25 26  1  0  0  0  0
 26 27  1  0  0  0  0
  3 28  1  0  0  0  0
 28 29  1  0  0  0  0
 29 30  1  0  0  0  0
 30 31  2  0  0  0  0
 30 32  1  0  0  0  0
 32 33  1  0  0  0  0
 33 34  1  0  0  0  0
 34 35  1  0  0  0  0
 35 36  1  0  0  0  0
 36 37  1  0  0  0  0
 37 38  1  0  0  0  0
 38 39  1  0  0  0  0
M  END
> <RowID>
491

> <Original_SMILES>
CCC(COC(=O)CCCCCCCC)(COC(=O)CCCCCCCC)COC(=O)CCCCCCCC

> <Canonical_QSARr>
CCC(COC(=O)CCCCCCCC)(COC(=O)CCCCCCCC)COC(=O)CCCCCCCC

> <InChI_Code_QSARr>
InChI=1S/C33H62O6/c1-5-9-12-15-18-21-24-30(34)37-27-33(8-4,28-38-31(35)25-22-19-16-13-10-6-2)29-39-32(36)26-23-20-17-14-11-7-3/h5-29H2,1-4H3

> <InChI Key_QSARr>
KDMAJIXYCNOVJB-UHFFFAOYSA-N

> <Salt_Solvent>


> <Salt_Solvent_ID>
0

> <Number of connected components>
1

$$$$
Molecule_493
  Mrv2316 01072400032D          

 25 24  0  0  0  0            999 V2000
    0.5230   -2.5559    0.0000 C   0  0  0  0  0  0  0  0  0  0  0  0
    0.1105   -1.8414    0.0000 C   0  0  0  0  0  0  0  0  0  0  0  0
    0.5230   -1.1270    0.0000 O   0  0  0  0  0  0  0  0  0  0  0  0
    0.1105   -0.4125    0.0000 C   0  0  0  0  0  0  0  0  0  0  0  0
   -0.3020    0.3020    0.0000 F   0  0  0  0  0  0  0  0  0  0  0  0
    0.8250    0.0000    0.0000 C   0  0  0  0  0  0  0  0  0  0  0  0
    1.2375   -0.7145    0.0000 F   0  0  0  0  0  0  0  0  0  0  0  0
    0.4125    0.7145    0.0000 C   0  0  0  0  0  0  0  0  0  0  0  0
   -0.0000    1.4289    0.0000 F   0  0  0  0  0  0  0  0  0  0  0  0
    1.1270    1.1270    0.0000 F   0  0  0  0  0  0  0  0  0  0  0  0
   -0.4080    0.8007    0.0000 F   0  0  0  0  0  0  0  0  0  0  0  0
    1.5395    0.4125    0.0000 C   0  0  0  0  0  0  0  0  0  0  0  0
    1.9520   -0.3020    0.0000 F   0  0  0  0  0  0  0  0  0  0  0  0
    1.6257    1.2330    0.0000 F   0  0  0  0  0  0  0  0  0  0  0  0
    2.2539    0.8250    0.0000 F   0  0  0  0  0  0  0  0  0  0  0  0
   -0.6039   -0.8250    0.0000 C   0  0  0  0  0  0  0  0  0  0  0  0
   -1.0164   -0.1105    0.0000 F   0  0  0  0  0  0  0  0  0  0  0  0
   -0.1914   -1.5395    0.0000 F   0  0  0  0  0  0  0  0  0  0  0  0
   -1.3184   -1.2375    0.0000 C   0  0  0  0  0  0  0  0  0  0  0  0
   -1.7309   -0.5230    0.0000 F   0  0  0  0  0  0  0  0  0  0  0  0
   -0.9059   -1.9520    0.0000 F   0  0  0  0  0  0  0  0  0  0  0  0
   -2.0329   -1.6500    0.0000 C   0  0  0  0  0  0  0  0  0  0  0  0
   -2.7474   -2.0625    0.0000 F   0  0  0  0  0  0  0  0  0  0  0  0
   -2.4454   -0.9355    0.0000 F   0  0  0  0  0  0  0  0  0  0  0  0
   -1.6204   -2.3645    0.0000 F   0  0  0  0  0  0  0  0  0  0  0  0
  1  2  1  0  0  0  0
  2  3  1  0  0  0  0
  3  4  1  0  0  0  0
  4  5  1  0  0  0  0
  4  6  1  0  0  0  0
  6  7  1  0  0  0  0
  6  8  1  0  0  0  0
  8  9  1  0  0  0  0
  8 10  1  0  0  0  0
  8 11  1  0  0  0  0
  6 12  1  0  0  0  0
 12 13  1  0  0  0  0
 12 14  1  0  0  0  0
 12 15  1  0  0  0  0
  4 16  1  0  0  0  0
 16 17  1  0  0  0  0
 16 18  1  0  0  0  0
 16 19  1  0  0  0  0
 19 20  1  0  0  0  0
 19 21  1  0  0  0  0
 19 22  1  0  0  0  0
 22 23  1  0  0  0  0
 22 24  1  0  0  0  0
 22 25  1  0  0  0  0
M  END
> <RowID>
493

> <Original_SMILES>
CCOC(F)(C(F)(C(F)(F)F)C(F)(F)F)C(F)(F)C(F)(F)C(F)(F)F

> <Canonical_QSARr>
CCOC(F)(C(F)(C(F)(F)F)C(F)(F)F)C(F)(F)C(F)(F)C(F)(F)F

> <InChI_Code_QSARr>
InChI=1S/C9H5F15O/c1-2-25-6(15,3(10,7(16,17)18)8(19,20)21)4(11,12)5(13,14)9(22,23)24/h2H2,1H3

> <InChI Key_QSARr>
HHBBIOLEJRWIGU-UHFFFAOYSA-N

> <Salt_Solvent>


> <Salt_Solvent_ID>
0

> <Number of connected components>
1

$$$$
Molecule_494
  Mrv2316 01072400032D          

 16 16  0  0  0  0            999 V2000
   -0.2020    2.4135    0.0000 C   0  0  0  0  0  0  0  0  0  0  0  0
   -0.0305    1.6066    0.0000 C   0  0  0  0  0  0  0  0  0  0  0  0
   -0.6435    1.0545    0.0000 O   0  0  0  0  0  0  0  0  0  0  0  0
    0.7542    1.3516    0.0000 C   0  0  0  0  0  0  0  0  0  0  0  0
    0.4992    0.5670    0.0000 C   0  0  0  0  0  0  0  0  0  0  0  0
    1.0091    2.1363    0.0000 C   0  0  0  0  0  0  0  0  0  0  0  0
    1.5388    1.0967    0.0000 C   0  0  0  0  0  0  0  0  0  0  0  0
    1.7103    0.2897    0.0000 C   0  0  0  0  0  0  0  0  0  0  0  0
    2.4949    0.0348    0.0000 C   0  0  0  0  0  0  0  0  0  0  0  0
    2.7499   -0.7498    0.0000 C   0  0  0  0  0  0  0  0  0  0  0  0
    3.5749   -0.7498    0.0000 C   0  0  0  0  0  0  0  0  0  0  0  0
    3.8298    0.0348    0.0000 C   0  0  0  0  0  0  0  0  0  0  0  0
    4.6144    0.2897    0.0000 C   0  0  0  0  0  0  0  0  0  0  0  0
    3.1624    0.5197    0.0000 C   0  0  0  0  0  0  0  0  0  0  0  0
    3.5674    1.2385    0.0000 C   0  0  0  0  0  0  0  0  0  0  0  0
    2.7574    1.2385    0.0000 C   0  0  0  0  0  0  0  0  0  0  0  0
  1  2  1  0  0  0  0
  2  3  1  0  0  0  0
  2  4  1  0  0  0  0
  4  5  1  0  0  0  0
  4  6  1  0  0  0  0
  7  4  1  4  0  0  0
  7  8  2  0  0  0  0
  8  9  1  0  0  0  0
 10  9  1  0  0  0  0
 11 10  1  0  0  0  0
 12 11  2  0  0  0  0
 12 13  1  0  0  0  0
 14 12  1  0  0  0  0
  9 14  1  0  0  0  0
 14 15  1  0  0  0  0
 14 16  1  0  0  0  0
M  END
> <RowID>
494

> <Original_SMILES>
CC(O)C(C)(C)C=CC1CC=C(C)C1(C)C

> <Canonical_QSARr>
CC(O)C(C)(C)C=CC1CC=C(C)C1(C)C

> <InChI_Code_QSARr>
InChI=1S/C15H26O/c1-11-7-8-13(15(11,5)6)9-10-14(3,4)12(2)16/h7,9-10,12-13,16H,8H2,1-6H3

> <InChI Key_QSARr>
QZFSNJAQFWEXEA-UHFFFAOYSA-N

> <Salt_Solvent>


> <Salt_Solvent_ID>
0

> <Number of connected components>
1

$$$$
Molecule_495
  Mrv2316 01072400032D          

 22 22  0  0  0  0            999 V2000
   -3.9621    6.3375    0.0000 C   0  0  0  0  0  0  0  0  0  0  0  0
   -3.9621    5.5125    0.0000 C   0  0  0  0  0  0  0  0  0  0  0  0
   -4.6765    5.1000    0.0000 C   0  0  0  0  0  0  0  0  0  0  0  0
   -3.2476    5.1000    0.0000 C   0  0  0  0  0  0  0  0  0  0  0  0
   -3.2476    4.2750    0.0000 C   0  0  0  0  0  0  0  0  0  0  0  0
   -2.5331    3.8625    0.0000 C   0  0  0  0  0  0  0  0  0  0  0  0
   -1.8186    4.2750    0.0000 C   0  0  0  0  0  0  0  0  0  0  0  0
   -2.5331    3.0375    0.0000 N   0  0  0  0  0  0  0  0  0  0  0  0
   -1.8186    2.6250    0.0000 C   0  0  0  0  0  0  0  0  0  0  0  0
   -1.8186    1.8000    0.0000 C   0  0  0  0  0  0  0  0  0  0  0  0
   -1.1042    1.3875    0.0000 C   0  0  0  0  0  0  0  0  0  0  0  0
   -0.3897    1.8000    0.0000 C   0  0  0  0  0  0  0  0  0  0  0  0
    0.3248    1.3875    0.0000 N   0  0  0  0  0  0  0  0  0  0  0  0
    1.0392    1.8000    0.0000 C   0  0  0  0  0  0  0  0  0  0  0  0
    1.0392    2.6250    0.0000 C   0  0  0  0  0  0  0  0  0  0  0  0
    1.7537    1.3875    0.0000 C   0  0  0  0  0  0  0  0  0  0  0  0
    2.4682    1.8000    0.0000 C   0  0  0  0  0  0  0  0  0  0  0  0
    3.1827    1.3875    0.0000 C   0  0  0  0  0  0  0  0  0  0  0  0
    3.8971    1.8000    0.0000 C   0  0  0  0  0  0  0  0  0  0  0  0
    3.1827    0.5625    0.0000 C   0  0  0  0  0  0  0  0  0  0  0  0
   -0.3897    2.6250    0.0000 C   0  0  0  0  0  0  0  0  0  0  0  0
   -1.1042    3.0375    0.0000 C   0  0  0  0  0  0  0  0  0  0  0  0
  1  2  1  0  0  0  0
  2  3  1  0  0  0  0
  2  4  1  0  0  0  0
  4  5  1  0  0  0  0
  5  6  1  0  0  0  0
  6  7  1  0  0  0  0
  6  8  1  0  0  0  0
  8  9  1  0  0  0  0
 10  9  1  0  0  0  0
 11 10  2  0  0  0  0
 12 11  1  0  0  0  0
 12 13  1  0  0  0  0
 13 14  1  0  0  0  0
 14 15  1  0  0  0  0
 14 16  1  0  0  0  0
 16 17  1  0  0  0  0
 17 18  1  0  0  0  0
 18 19  1  0  0  0  0
 18 20  1  0  0  0  0
 21 12  2  0  0  0  0
 22 21  1  0  0  0  0
  9 22  2  0  0  0  0
M  END
> <RowID>
495

> <Original_SMILES>
CC(C)CCC(C)NC1C=CC(=CC=1)NC(C)CCC(C)C

> <Canonical_QSARr>
CC(C)CCC(C)NC1C=CC(=CC=1)NC(C)CCC(C)C

> <InChI_Code_QSARr>
InChI=1S/C20H36N2/c1-15(2)7-9-17(5)21-19-11-13-20(14-12-19)22-18(6)10-8-16(3)4/h11-18,21-22H,7-10H2,1-6H3

> <InChI Key_QSARr>
ZJNLYGOUHDJHMG-UHFFFAOYSA-N

> <Salt_Solvent>


> <Salt_Solvent_ID>
0

> <Number of connected components>
1

$$$$
Molecule_496
  Mrv2316 01072400032D          

 19 21  0  0  0  0            999 V2000
    0.0000   -1.6500    0.0000 C   0  0  0  0  0  0  0  0  0  0  0  0
   -0.7145   -1.2375    0.0000 C   0  0  0  0  0  0  0  0  0  0  0  0
   -0.7145   -0.4125    0.0000 P   0  0  0  0  0  0  0  0  0  0  0  0
   -1.4289   -0.0000    0.0000 C   0  0  0  0  0  0  0  0  0  0  0  0
   -1.4289    0.8250    0.0000 C   0  0  0  0  0  0  0  0  0  0  0  0
   -2.1434    1.2375    0.0000 C   0  0  0  0  0  0  0  0  0  0  0  0
   -2.8579    0.8250    0.0000 C   0  0  0  0  0  0  0  0  0  0  0  0
   -2.8579   -0.0000    0.0000 C   0  0  0  0  0  0  0  0  0  0  0  0
   -2.1434   -0.4125    0.0000 C   0  0  0  0  0  0  0  0  0  0  0  0
    0.0000    0.0000    0.0000 C   0  0  0  0  0  0  0  0  0  0  0  0
    0.7145   -0.4125    0.0000 C   0  0  0  0  0  0  0  0  0  0  0  0
    1.4289    0.0000    0.0000 C   0  0  0  0  0  0  0  0  0  0  0  0
    1.4289    0.8250    0.0000 C   0  0  0  0  0  0  0  0  0  0  0  0
    0.7145    1.2375    0.0000 C   0  0  0  0  0  0  0  0  0  0  0  0
    0.0000    0.8250    0.0000 C   0  0  0  0  0  0  0  0  0  0  0  0
   -1.4289   -1.6500    0.0000 C   0  0  0  0  0  0  0  0  0  0  0  0
   -1.4289   -2.4750    0.0000 C   0  0  0  0  0  0  0  0  0  0  0  0
   -0.7145   -2.8875    0.0000 C   0  0  0  0  0  0  0  0  0  0  0  0
    0.0000   -2.4750    0.0000 C   0  0  0  0  0  0  0  0  0  0  0  0
  2  1  1  0  0  0  0
  2  3  1  0  0  0  0
  3  4  1  0  0  0  0
  5  4  2  0  0  0  0
  6  5  1  0  0  0  0
  7  6  2  0  0  0  0
  8  7  1  0  0  0  0
  9  8  2  0  0  0  0
  4  9  1  0  0  0  0
  3 10  1  0  0  0  0
 11 10  2  0  0  0  0
 12 11  1  0  0  0  0
 13 12  2  0  0  0  0
 14 13  1  0  0  0  0
 15 14  2  0  0  0  0
 10 15  1  0  0  0  0
 16  2  2  0  0  0  0
 17 16  1  0  0  0  0
 18 17  2  0  0  0  0
 19 18  1  0  0  0  0
  1 19  2  0  0  0  0
M  END
> <RowID>
496

> <Original_SMILES>
[Pd].C1=CC=CC=C1P(C1C=CC=CC=1)C1C=CC=CC=1.C1=CC=CC=C1P(C1C=CC=CC=1)C1C=CC=CC=1.C1=CC=CC=C1P(C1C=CC=CC=1)C1C=CC=CC=1.C1=CC=CC=C1P(C1C=CC=CC=1)C1C=CC=CC=1

> <Canonical_QSARr>
C1=CC=CC=C1P(C1C=CC=CC=1)C1C=CC=CC=1

> <InChI_Code_QSARr>
InChI=1S/C18H15P/c1-4-10-16(11-5-1)19(17-12-6-2-7-13-17)18-14-8-3-9-15-18/h1-15H

> <InChI Key_QSARr>
RIOQSEWOXXDEQQ-UHFFFAOYSA-N

> <Salt_Solvent>
[Pd]

> <Salt_Solvent_ID>
460

> <Number of connected components>
5

$$$$
Molecule_497
  Mrv2316 01072400032D          

 15 14  0  0  0  0            999 V2000
    6.7105    4.6993    0.0000 C   0  0  0  0  0  0  0  0  0  0  0  0
    7.4250    4.2868    0.0000 O   0  0  0  0  0  0  0  0  0  0  0  0
    8.1395    4.6993    0.0000 C   0  0  0  0  0  0  0  0  0  0  0  0
    8.8539    4.2868    0.0000 C   0  0  0  0  0  0  0  0  0  0  0  0
    9.5684    4.6993    0.0000 O   0  0  0  0  0  0  0  0  0  0  0  0
   10.2829    4.2868    0.0000 C   0  0  0  0  0  0  0  0  0  0  0  0
   10.9974    4.6993    0.0000 C   0  0  0  0  0  0  0  0  0  0  0  0
   11.7118    4.2868    0.0000 O   0  0  0  0  0  0  0  0  0  0  0  0
   12.4263    4.6993    0.0000 C   0  0  0  0  0  0  0  0  0  0  0  0
   13.1408    4.2868    0.0000 C   0  0  0  0  0  0  0  0  0  0  0  0
   13.8552    4.6993    0.0000 O   0  0  0  0  0  0  0  0  0  0  0  0
   14.5697    4.2868    0.0000 C   0  0  0  0  0  0  0  0  0  0  0  0
   15.2842    4.6993    0.0000 C   0  0  0  0  0  0  0  0  0  0  0  0
   15.9987    4.2868    0.0000 O   0  0  0  0  0  0  0  0  0  0  0  0
   16.7131    4.6993    0.0000 C   0  0  0  0  0  0  0  0  0  0  0  0
  1  2  1  0  0  0  0
  2  3  1  0  0  0  0
  3  4  1  0  0  0  0
  4  5  1  0  0  0  0
  5  6  1  0  0  0  0
  6  7  1  0  0  0  0
  7  8  1  0  0  0  0
  8  9  1  0  0  0  0
  9 10  1  0  0  0  0
 10 11  1  0  0  0  0
 11 12  1  0  0  0  0
 12 13  1  0  0  0  0
 13 14  1  0  0  0  0
 14 15  1  0  0  0  0
M  END
> <RowID>
497

> <Original_SMILES>
COCCOCCOCCOCCOC

> <Canonical_QSARr>
COCCOCCOCCOCCOC

> <InChI_Code_QSARr>
InChI=1S/C10H22O5/c1-11-3-5-13-7-9-15-10-8-14-6-4-12-2/h3-10H2,1-2H3

> <InChI Key_QSARr>
ZUHZGEOKBKGPSW-UHFFFAOYSA-N

> <Salt_Solvent>


> <Salt_Solvent_ID>
0

> <Number of connected components>
1

$$$$
Molecule_498
  Mrv2316 01072400032D          

 20 21  0  0  0  0            999 V2000
    4.2511   -2.4131    0.0000 C   0  0  0  0  0  0  0  0  0  0  0  0
    3.5366   -2.8256    0.0000 O   0  0  0  0  0  0  0  0  0  0  0  0
    2.8222   -2.4131    0.0000 C   0  0  0  0  0  0  0  0  0  0  0  0
    2.8222   -1.5881    0.0000 C   0  0  0  0  0  0  0  0  0  0  0  0
    2.1077   -1.1756    0.0000 C   0  0  0  0  0  0  0  0  0  0  0  0
    2.1077   -0.3506    0.0000 O   0  0  0  0  0  0  0  0  0  0  0  0
    1.3932    0.0619    0.0000 C   0  0  0  0  0  0  0  0  0  0  0  0
    1.3932   -1.5881    0.0000 N   0  0  0  0  0  0  0  0  0  0  0  0
    1.3932   -2.4131    0.0000 C   0  0  0  0  0  0  0  0  0  0  0  0
    0.6788   -2.8256    0.0000 N   0  0  0  0  0  0  0  0  0  0  0  0
    0.6788   -3.6506    0.0000 C   0  0  0  0  0  0  0  0  0  0  0  0
    1.3932   -4.0631    0.0000 O   0  0  0  0  0  0  0  0  0  0  0  0
   -0.0357   -4.0631    0.0000 O   0  0  0  0  0  0  0  0  0  0  0  0
   -0.0357   -4.8881    0.0000 C   0  0  0  0  0  0  0  0  0  0  0  0
   -0.7502   -5.3006    0.0000 C   0  0  0  0  0  0  0  0  0  0  0  0
   -0.7502   -6.1256    0.0000 C   0  0  0  0  0  0  0  0  0  0  0  0
   -0.0357   -6.5381    0.0000 C   0  0  0  0  0  0  0  0  0  0  0  0
    0.6788   -6.1256    0.0000 C   0  0  0  0  0  0  0  0  0  0  0  0
    0.6788   -5.3006    0.0000 C   0  0  0  0  0  0  0  0  0  0  0  0
    2.1077   -2.8256    0.0000 N   0  0  0  0  0  0  0  0  0  0  0  0
  1  2  1  0  0  0  0
  2  3  1  0  0  0  0
  4  3  2  0  0  0  0
  5  4  1  0  0  0  0
  5  6  1  0  0  0  0
  6  7  1  0  0  0  0
  8  5  2  0  0  0  0
  9  8  1  0  0  0  0
  9 10  1  0  0  0  0
 10 11  1  0  0  0  0
 11 12  2  0  0  0  0
 11 13  1  0  0  0  0
 13 14  1  0  0  0  0
 15 14  1  0  0  0  0
 16 15  2  0  0  0  0
 17 16  1  0  0  0  0
 18 17  2  0  0  0  0
 19 18  1  0  0  0  0
 14 19  2  0  0  0  0
 20  9  2  0  0  0  0
  3 20  1  0  0  0  0
M  END
> <RowID>
498

> <Original_SMILES>
COC1=CC(=NC(NC(=O)OC2C=CC=CC=2)=N1)OC

> <Canonical_QSARr>
COC1=CC(=NC(NC(=O)OC2C=CC=CC=2)=N1)OC

> <InChI_Code_QSARr>
InChI=1S/C13H13N3O4/c1-18-10-8-11(19-2)15-12(14-10)16-13(17)20-9-6-4-3-5-7-9/h3-8H,1-2H3,(H,14,15,16,17)

> <InChI Key_QSARr>
MESPVSMSORHLAX-UHFFFAOYSA-N

> <Salt_Solvent>


> <Salt_Solvent_ID>
0

> <Number of connected components>
1

$$$$
Molecule_499
  Mrv2316 01072400032D          

 18 18  0  0  0  0            999 V2000
    5.6346   -6.3052    0.0000 C   0  0  0  0  0  0  0  0  0  0  0  0
    6.3491   -6.7177    0.0000 C   0  0  0  0  0  0  0  0  0  0  0  0
    7.0636   -6.3052    0.0000 C   0  0  0  0  0  0  0  0  0  0  0  0
    7.7781   -6.7177    0.0000 C   0  0  0  0  0  0  0  0  0  0  0  0
    8.4925   -6.3052    0.0000 C   0  0  0  0  0  0  0  0  0  0  0  0
    9.2070   -6.7177    0.0000 C   0  0  0  0  0  0  0  0  0  0  0  0
    9.9215   -6.3052    0.0000 C   0  0  0  0  0  0  0  0  0  0  0  0
   10.6359   -6.7177    0.0000 C   0  0  0  0  0  0  0  0  0  0  0  0
   11.3504   -6.3052    0.0000 C   0  0  0  0  0  0  0  0  0  0  0  0
   12.0649   -6.7177    0.0000 C   0  0  0  0  0  0  0  0  0  0  0  0
   12.7794   -6.3052    0.0000 C   0  0  0  0  0  0  0  0  0  0  0  0
   13.4938   -6.7177    0.0000 C   0  0  0  0  0  0  0  0  0  0  0  0
   14.2083   -6.3052    0.0000 N   0  0  0  0  0  0  0  0  0  0  0  0
   14.9620   -6.6408    0.0000 C   0  0  0  0  0  0  0  0  0  0  0  0
   15.5140   -6.0277    0.0000 C   0  0  0  0  0  0  0  0  0  0  0  0
   15.1015   -5.3132    0.0000 C   0  0  0  0  0  0  0  0  0  0  0  0
   14.2945   -5.4848    0.0000 C   0  0  0  0  0  0  0  0  0  0  0  0
   13.6814   -4.9327    0.0000 O   0  0  0  0  0  0  0  0  0  0  0  0
  1  2  1  0  0  0  0
  2  3  1  0  0  0  0
  3  4  1  0  0  0  0
  4  5  1  0  0  0  0
  5  6  1  0  0  0  0
  6  7  1  0  0  0  0
  7  8  1  0  0  0  0
  8  9  1  0  0  0  0
  9 10  1  0  0  0  0
 10 11  1  0  0  0  0
 11 12  1  0  0  0  0
 12 13  1  0  0  0  0
 14 13  1  0  0  0  0
 15 14  1  0  0  0  0
 16 15  1  0  0  0  0
 17 16  1  0  0  0  0
 13 17  1  0  0  0  0
 17 18  2  0  0  0  0
M  END
> <RowID>
499

> <Original_SMILES>
CCCCCCCCCCCCN1CCCC1=O

> <Canonical_QSARr>
CCCCCCCCCCCCN1CCCC1=O

> <InChI_Code_QSARr>
InChI=1S/C16H31NO/c1-2-3-4-5-6-7-8-9-10-11-14-17-15-12-13-16(17)18/h2-15H2,1H3

> <InChI Key_QSARr>
NJPQAIBZIHNJDO-UHFFFAOYSA-N

> <Salt_Solvent>


> <Salt_Solvent_ID>
0

> <Number of connected components>
1

$$$$
Molecule_500
  Mrv2316 01072400032D          

 40 42  0  0  0  0            999 V2000
    2.1613   -6.6103    0.0000 C   0  0  0  0  0  0  0  0  0  0  0  0
    1.4468   -6.1978    0.0000 C   0  0  0  0  0  0  0  0  0  0  0  0
    0.7324   -6.6103    0.0000 O   0  0  0  0  0  0  0  0  0  0  0  0
    1.4468   -5.3728    0.0000 C   0  0  0  0  0  0  0  0  0  0  0  0
    0.7324   -4.9603    0.0000 N   0  0  0  0  0  0  0  0  0  0  0  0
    0.7324   -4.1353    0.0000 N   0  0  0  0  0  0  0  0  0  0  0  0
    0.0179   -3.7228    0.0000 C   0  0  0  0  0  0  0  0  0  0  0  0
    0.0179   -2.8978    0.0000 C   0  0  0  0  0  0  0  0  0  0  0  0
   -0.6966   -2.4853    0.0000 C   0  0  0  0  0  0  0  0  0  0  0  0
   -0.6966   -1.6603    0.0000 O   0  0  0  0  0  0  0  0  0  0  0  0
    0.0179   -1.2478    0.0000 C   0  0  0  0  0  0  0  0  0  0  0  0
   -1.4111   -2.8978    0.0000 C   0  0  0  0  0  0  0  0  0  0  0  0
   -2.1255   -2.4853    0.0000 S   0  0  0  0  0  0  0  0  0  0  0  0
   -2.5380   -3.1998    0.0000 O   0  0  0  0  0  0  0  0  0  0  0  0
   -1.7130   -1.7708    0.0000 O   0  0  0  0  0  0  0  0  0  0  0  0
   -2.8400   -2.0728    0.0000 N   0  0  0  0  0  0  0  0  0  0  0  0
   -3.5545   -2.4853    0.0000 C   0  0  0  0  0  0  0  0  0  0  0  0
   -4.2689   -2.0728    0.0000 C   0  0  0  0  0  0  0  0  0  0  0  0
   -4.9834   -2.4853    0.0000 C   0  0  0  0  0  0  0  0  0  0  0  0
   -4.9834   -3.3103    0.0000 C   0  0  0  0  0  0  0  0  0  0  0  0
   -4.2689   -3.7228    0.0000 C   0  0  0  0  0  0  0  0  0  0  0  0
   -3.5545   -3.3103    0.0000 C   0  0  0  0  0  0  0  0  0  0  0  0
   -1.4111   -3.7228    0.0000 C   0  0  0  0  0  0  0  0  0  0  0  0
   -0.6966   -4.1353    0.0000 C   0  0  0  0  0  0  0  0  0  0  0  0
   -0.6966   -4.9603    0.0000 O   0  0  0  0  0  0  0  0  0  0  0  0
    0.0179   -5.3728    0.0000 C   0  0  0  0  0  0  0  0  0  0  0  0
    2.1613   -4.9603    0.0000 C   0  0  0  0  0  0  0  0  0  0  0  0
    2.1613   -4.1353    0.0000 O   0  0  0  0  0  0  0  0  0  0  0  0
    2.8758   -5.3728    0.0000 N   0  0  0  0  0  0  0  0  0  0  0  0
    3.5902   -4.9603    0.0000 C   0  0  0  0  0  0  0  0  0  0  0  0
    4.3047   -5.3728    0.0000 C   0  0  0  0  0  0  0  0  0  0  0  0
    5.0192   -4.9603    0.0000 C   0  0  0  0  0  0  0  0  0  0  0  0
    5.7336   -5.3728    0.0000 O   0  0  0  0  0  0  0  0  0  0  0  0
    5.7336   -6.1978    0.0000 C   0  0  0  0  0  0  0  0  0  0  0  0
    5.0192   -4.1353    0.0000 C   0  0  0  0  0  0  0  0  0  0  0  0
    5.7336   -3.7228    0.0000 Cl  0  0  0  0  0  0  0  0  0  0  0  0
    4.3047   -3.7228    0.0000 C   0  0  0  0  0  0  0  0  0  0  0  0
    3.5902   -4.1353    0.0000 C   0  0  0  0  0  0  0  0  0  0  0  0
    2.8758   -3.7228    0.0000 O   0  0  0  0  0  0  0  0  0  0  0  0
    2.8758   -2.8978    0.0000 C   0  0  0  0  0  0  0  0  0  0  0  0
  1  2  1  0  0  0  0
  2  3  2  0  0  0  0
  2  4  1  0  0  0  0
  5  4  1  4  0  0  0
  5  6  2  0  0  0  0
  6  7  1  0  0  0  0
  8  7  2  0  0  0  0
  9  8  1  0  0  0  0
  9 10  1  0  0  0  0
 10 11  1  0  0  0  0
 12  9  2  0  0  0  0
 12 13  1  0  0  0  0
 13 14  2  0  0  0  0
 13 15  2  0  0  0  0
 13 16  1  0  0  0  0
 16 17  1  0  0  0  0
 18 17  1  0  0  0  0
 19 18  2  0  0  0  0
 20 19  1  0  0  0  0
 21 20  2  0  0  0  0
 22 21  1  0  0  0  0
 17 22  2  0  0  0  0
 23 12  1  0  0  0  0
 24 23  2  0  0  0  0
  7 24  1  0  0  0  0
 24 25  1  0  0  0  0
 25 26  1  0  0  0  0
  4 27  1  0  0  0  0
 27 28  2  0  0  0  0
 27 29  1  0  0  0  0
 29 30  1  0  0  0  0
 31 30  2  0  0  0  0
 32 31  1  0  0  0  0
 32 33  1  0  0  0  0
 33 34  1  0  0  0  0
 35 32  2  0  0  0  0
 35 36  1  0  0  0  0
 37 35  1  0  0  0  0
 38 37  2  0  0  0  0
 30 38  1  0  0  0  0
 38 39  1  0  0  0  0
 39 40  1  0  0  0  0
M  END
> <RowID>
500

> <Original_SMILES>
CC(=O)C(N=NC1=CC(OC)=C(C=C1OC)S(=O)(=O)NC1C=CC=CC=1)C(=O)NC1=CC(OC)=C(Cl)C=C1OC

> <Canonical_QSARr>
CC(=O)C(N=NC1=CC(OC)=C(C=C1OC)S(=O)(=O)NC1C=CC=CC=1)C(=O)NC1=CC(OC)=C(Cl)C=C1OC

> <InChI_Code_QSARr>
InChI=1S/C26H27ClN4O8S/c1-15(32)25(26(33)28-18-12-20(36-2)17(27)11-21(18)37-3)30-29-19-13-23(39-5)24(14-22(19)38-4)40(34,35)31-16-9-7-6-8-10-16/h6-14,25,31H,1-5H3,(H,28,33)

> <InChI Key_QSARr>
WNWZKKBGFYKSGA-UHFFFAOYSA-N

> <Salt_Solvent>


> <Salt_Solvent_ID>
0

> <Number of connected components>
1

$$$$
Molecule_501
  Mrv2316 01072400032D          

 44 49  0  0  0  0            999 V2000
   -4.3440   -6.6553    0.0000 N   0  0  0  0  0  0  0  0  0  0  0  0
   -5.0114   -6.1704    0.0000 N   0  0  0  0  0  0  0  0  0  0  0  0
   -5.0114   -5.3454    0.0000 C   0  0  0  0  0  0  0  0  0  0  0  0
   -4.2970   -4.9329    0.0000 C   0  0  0  0  0  0  0  0  0  0  0  0
   -4.2970   -4.1079    0.0000 C   0  0  0  0  0  0  0  0  0  0  0  0
   -5.0114   -3.6954    0.0000 C   0  0  0  0  0  0  0  0  0  0  0  0
   -5.7259   -4.1079    0.0000 C   0  0  0  0  0  0  0  0  0  0  0  0
   -5.7259   -4.9329    0.0000 C   0  0  0  0  0  0  0  0  0  0  0  0
   -5.6789   -6.6553    0.0000 C   0  0  0  0  0  0  0  0  0  0  0  0
   -6.4635   -6.4004    0.0000 O   0  0  0  0  0  0  0  0  0  0  0  0
   -5.4239   -7.4400    0.0000 C   0  0  0  0  0  0  0  0  0  0  0  0
   -5.9088   -8.1074    0.0000 N   0  0  0  0  0  0  0  0  0  0  0  0
   -6.7293   -8.0212    0.0000 N   0  0  0  0  0  0  0  0  0  0  0  0
   -7.2142   -8.6886    0.0000 C   0  0  0  0  0  0  0  0  0  0  0  0
   -8.0347   -8.6024    0.0000 C   0  0  0  0  0  0  0  0  0  0  0  0
   -8.3703   -7.8487    0.0000 Cl  0  0  0  0  0  0  0  0  0  0  0  0
   -8.5197   -9.2698    0.0000 C   0  0  0  0  0  0  0  0  0  0  0  0
   -8.1841  -10.0235    0.0000 C   0  0  0  0  0  0  0  0  0  0  0  0
   -8.6690  -10.6909    0.0000 C   0  0  0  0  0  0  0  0  0  0  0  0
   -9.4895  -10.6047    0.0000 C   0  0  0  0  0  0  0  0  0  0  0  0
   -9.9744  -11.2721    0.0000 C   0  0  0  0  0  0  0  0  0  0  0  0
   -9.6389  -12.0258    0.0000 C   0  0  0  0  0  0  0  0  0  0  0  0
  -10.1238  -12.6932    0.0000 N   0  0  0  0  0  0  0  0  0  0  0  0
  -10.9443  -12.6070    0.0000 N   0  0  0  0  0  0  0  0  0  0  0  0
  -11.4292  -13.2744    0.0000 C   0  0  0  0  0  0  0  0  0  0  0  0
  -12.2542  -13.2744    0.0000 C   0  0  0  0  0  0  0  0  0  0  0  0
  -12.7391  -12.6070    0.0000 O   0  0  0  0  0  0  0  0  0  0  0  0
  -12.5091  -14.0591    0.0000 N   0  0  0  0  0  0  0  0  0  0  0  0
  -13.2937  -14.3140    0.0000 C   0  0  0  0  0  0  0  0  0  0  0  0
  -13.9068  -13.7620    0.0000 C   0  0  0  0  0  0  0  0  0  0  0  0
  -14.6915  -14.0169    0.0000 C   0  0  0  0  0  0  0  0  0  0  0  0
  -14.8630  -14.8239    0.0000 C   0  0  0  0  0  0  0  0  0  0  0  0
  -14.2499  -15.3759    0.0000 C   0  0  0  0  0  0  0  0  0  0  0  0
  -13.4653  -15.1210    0.0000 C   0  0  0  0  0  0  0  0  0  0  0  0
  -11.8417  -14.5440    0.0000 N   0  0  0  0  0  0  0  0  0  0  0  0
  -11.1742  -14.0591    0.0000 C   0  0  0  0  0  0  0  0  0  0  0  0
  -10.3896  -14.3140    0.0000 C   0  0  0  0  0  0  0  0  0  0  0  0
   -8.8184  -12.1120    0.0000 C   0  0  0  0  0  0  0  0  0  0  0  0
   -8.4828  -12.8657    0.0000 Cl  0  0  0  0  0  0  0  0  0  0  0  0
   -8.3335  -11.4446    0.0000 C   0  0  0  0  0  0  0  0  0  0  0  0
   -7.3636  -10.1097    0.0000 C   0  0  0  0  0  0  0  0  0  0  0  0
   -6.8787   -9.4423    0.0000 C   0  0  0  0  0  0  0  0  0  0  0  0
   -4.5989   -7.4400    0.0000 C   0  0  0  0  0  0  0  0  0  0  0  0
   -4.1140   -8.1074    0.0000 C   0  0  0  0  0  0  0  0  0  0  0  0
  2  1  1  0  0  0  0
  2  3  1  0  0  0  0
  4  3  1  0  0  0  0
  5  4  2  0  0  0  0
  6  5  1  0  0  0  0
  7  6  2  0  0  0  0
  8  7  1  0  0  0  0
  3  8  2  0  0  0  0
  9  2  1  0  0  0  0
  9 10  2  0  0  0  0
 11  9  1  0  0  0  0
 12 11  1  4  0  0  0
 12 13  2  0  0  0  0
 13 14  1  0  0  0  0
 15 14  1  0  0  0  0
 15 16  1  0  0  0  0
 17 15  2  0  0  0  0
 18 17  1  0  0  0  0
 18 19  1  0  0  0  0
 20 19  1  0  0  0  0
 21 20  2  0  0  0  0
 22 21  1  0  0  0  0
 23 22  1  4  0  0  0
 23 24  2  0  0  0  0
 24 25  1  0  0  0  0
 26 25  1  0  0  0  0
 26 27  2  0  0  0  0
 28 26  1  0  0  0  0
 28 29  1  0  0  0  0
 30 29  1  0  0  0  0
 31 30  2  0  0  0  0
 32 31  1  0  0  0  0
 33 32  2  0  0  0  0
 34 33  1  0  0  0  0
 29 34  2  0  0  0  0
 35 28  1  0  0  0  0
 36 35  2  0  0  0  0
 25 36  1  0  0  0  0
 36 37  1  0  0  0  0
 38 22  2  0  0  0  0
 38 39  1  0  0  0  0
 40 38  1  0  0  0  0
 19 40  2  0  0  0  0
 41 18  2  0  0  0  0
 42 41  1  0  0  0  0
 14 42  2  0  0  0  0
 43 11  1  0  0  0  0
  1 43  2  0  0  0  0
 43 44  1  0  0  0  0
M  END
> <RowID>
501

> <Original_SMILES>
CC1NN(C2C=CC=CC=2)C(=O)C=1N=NC1=CC=C(C=C1Cl)C1=CC(Cl)=C(C=C1)N=NC1C(=O)N(NC=1C)C1C=CC=CC=1

> <Canonical_QSARr>
CC1=NN(C2C=CC=CC=2)C(=O)C1N=NC1=CC=C(C=C1Cl)C1=CC(Cl)=C(C=C1)N=NC1C(=O)N(N=C1C)C1C=CC=CC=1

> <InChI_Code_QSARr>
InChI=1S/C32H24Cl2N8O2/c1-19-29(31(43)41(39-19)23-9-5-3-6-10-23)37-35-27-15-13-21(17-25(27)33)22-14-16-28(26(34)18-22)36-38-30-20(2)40-42(32(30)44)24-11-7-4-8-12-24/h3-18,29-30H,1-2H3

> <InChI Key_QSARr>
HKYYDLYCGBDWSB-UHFFFAOYSA-N

> <Salt_Solvent>


> <Salt_Solvent_ID>
0

> <Number of connected components>
1

$$$$
Molecule_502
  Mrv2316 01072400032D          

 15 15  0  0  0  0            999 V2000
    2.8579   -1.8150    0.0000 C   0  0  0  0  0  0  0  0  0  0  0  0
    2.1434   -1.4025    0.0000 O   0  0  0  0  0  0  0  0  0  0  0  0
    2.1434   -0.5775    0.0000 C   0  0  0  0  0  0  0  0  0  0  0  0
    2.8579   -0.1650    0.0000 O   0  0  0  0  0  0  0  0  0  0  0  0
    1.4289   -0.1650    0.0000 C   0  0  0  0  0  0  0  0  0  0  0  0
    1.4289    0.6600    0.0000 C   0  0  0  0  0  0  0  0  0  0  0  0
    0.7145    1.0725    0.0000 C   0  0  0  0  0  0  0  0  0  0  0  0
    0.7145    1.8975    0.0000 N   0  0  0  0  0  0  0  0  0  0  0  0
   -0.0000    0.6600    0.0000 C   0  0  0  0  0  0  0  0  0  0  0  0
   -0.7145    1.0725    0.0000 C   0  0  0  0  0  0  0  0  0  0  0  0
   -1.4289    0.6600    0.0000 O   0  0  0  0  0  0  0  0  0  0  0  0
   -0.7145    1.8975    0.0000 O   0  0  0  0  0  0  0  0  0  0  0  0
   -1.4289    2.3100    0.0000 C   0  0  0  0  0  0  0  0  0  0  0  0
   -0.0000   -0.1650    0.0000 C   0  0  0  0  0  0  0  0  0  0  0  0
    0.7145   -0.5775    0.0000 C   0  0  0  0  0  0  0  0  0  0  0  0
  1  2  1  0  0  0  0
  2  3  1  0  0  0  0
  3  4  2  0  0  0  0
  3  5  1  0  0  0  0
  6  5  1  0  0  0  0
  7  6  2  0  0  0  0
  7  8  1  0  0  0  0
  9  7  1  0  0  0  0
  9 10  1  0  0  0  0
 10 11  2  0  0  0  0
 10 12  1  0  0  0  0
 12 13  1  0  0  0  0
 14  9  2  0  0  0  0
 15 14  1  0  0  0  0
  5 15  2  0  0  0  0
M  END
> <RowID>
502

> <Original_SMILES>
COC(=O)C1C=C(N)C(=CC=1)C(=O)OC

> <Canonical_QSARr>
COC(=O)C1C=C(N)C(=CC=1)C(=O)OC

> <InChI_Code_QSARr>
InChI=1S/C10H11NO4/c1-14-9(12)6-3-4-7(8(11)5-6)10(13)15-2/h3-5H,11H2,1-2H3

> <InChI Key_QSARr>
DSSKDXUDARIMTR-UHFFFAOYSA-N

> <Salt_Solvent>


> <Salt_Solvent_ID>
0

> <Number of connected components>
1

$$$$
Molecule_503
  Mrv2316 01072400032D          

 21 24  0  0  0  0            999 V2000
    3.5330   -0.9728    0.0000 C   0  0  0  0  0  0  0  0  0  0  0  0
    3.8928   -1.7151    0.0000 C   0  0  0  0  0  0  0  0  0  0  0  0
    4.4247   -1.0844    0.0000 C   0  0  0  0  0  0  0  0  0  0  0  0
    5.2368   -1.2296    0.0000 C   0  0  0  0  0  0  0  0  0  0  0  0
    5.7686   -0.5989    0.0000 O   0  0  0  0  0  0  0  0  0  0  0  0
    5.5171   -2.0056    0.0000 C   0  0  0  0  0  0  0  0  0  0  0  0
    4.9853   -2.6363    0.0000 C   0  0  0  0  0  0  0  0  0  0  0  0
    5.2656   -3.4122    0.0000 C   0  0  0  0  0  0  0  0  0  0  0  0
    6.0777   -3.5574    0.0000 C   0  0  0  0  0  0  0  0  0  0  0  0
    6.6095   -2.9267    0.0000 C   0  0  0  0  0  0  0  0  0  0  0  0
    7.4216   -3.0719    0.0000 C   0  0  0  0  0  0  0  0  0  0  0  0
    7.9534   -2.4412    0.0000 C   0  0  0  0  0  0  0  0  0  0  0  0
    8.7656   -2.5864    0.0000 O   0  0  0  0  0  0  0  0  0  0  0  0
    7.6731   -1.6653    0.0000 C   0  0  0  0  0  0  0  0  0  0  0  0
    6.8610   -1.5201    0.0000 C   0  0  0  0  0  0  0  0  0  0  0  0
    6.3292   -2.1508    0.0000 C   0  0  0  0  0  0  0  0  0  0  0  0
    4.1731   -2.4910    0.0000 C   0  0  0  0  0  0  0  0  0  0  0  0
    3.5218   -2.9974    0.0000 C   0  0  0  0  0  0  0  0  0  0  0  0
    2.8390   -2.5344    0.0000 C   0  0  0  0  0  0  0  0  0  0  0  0
    3.0683   -1.7419    0.0000 C   0  0  0  0  0  0  0  0  0  0  0  0
    2.5619   -1.0906    0.0000 O   0  0  0  0  0  0  0  0  0  0  0  0
  1  2  1  0  0  0  0
  3  2  1  0  0  0  0
  4  3  1  0  0  0  0
  4  5  1  0  0  0  0
  6  4  1  0  0  0  0
  6  7  1  0  0  0  0
  7  8  1  0  0  0  0
  8  9  1  0  0  0  0
  9 10  1  0  0  0  0
 11 10  2  0  0  0  0
 12 11  1  0  0  0  0
 12 13  2  0  0  0  0
 14 12  1  0  0  0  0
 15 14  1  0  0  0  0
 16 15  1  0  0  0  0
 10 16  1  0  0  0  0
 16  6  1  0  0  0  0
 17  7  1  0  0  0  0
 17  2  1  0  0  0  0
 18 17  1  0  0  0  0
 19 18  1  0  0  0  0
 20 19  1  0  0  0  0
  2 20  1  0  0  0  0
 20 21  2  0  0  0  0
M  END
> <RowID>
503

> <Original_SMILES>
CC12CC(O)C3C(CCC4=CC(=O)CCC43)C1CCC2=O

> <Canonical_QSARr>
CC12CC(O)C3C(CCC4=CC(=O)CCC43)C1CCC2=O

> <InChI_Code_QSARr>
InChI=1S/C18H24O3/c1-18-9-15(20)17-12-5-3-11(19)8-10(12)2-4-13(17)14(18)6-7-16(18)21/h8,12-15,17,20H,2-7,9H2,1H3

> <InChI Key_QSARr>
VDCOSJPGDDQNJH-UHFFFAOYSA-N

> <Salt_Solvent>


> <Salt_Solvent_ID>
0

> <Number of connected components>
1

$$$$
Molecule_504
  Mrv2316 01072400032D          

 19 20  0  0  0  0            999 V2000
    6.0240    0.6947    0.0000 C   0  0  0  0  0  0  0  0  0  0  0  0
    5.3095    0.2822    0.0000 O   0  0  0  0  0  0  0  0  0  0  0  0
    4.5951    0.6947    0.0000 C   0  0  0  0  0  0  0  0  0  0  0  0
    4.5951    1.5197    0.0000 O   0  0  0  0  0  0  0  0  0  0  0  0
    3.8806    0.2822    0.0000 C   0  0  0  0  0  0  0  0  0  0  0  0
    3.1661    0.6947    0.0000 C   0  0  0  0  0  0  0  0  0  0  0  0
    3.1661    1.5197    0.0000 C   0  0  0  0  0  0  0  0  0  0  0  0
    3.8806    1.9322    0.0000 C   0  0  0  0  0  0  0  0  0  0  0  0
    3.8806    2.7572    0.0000 C   0  0  0  0  0  0  0  0  0  0  0  0
    3.1661    3.1697    0.0000 C   0  0  0  0  0  0  0  0  0  0  0  0
    2.4516    2.7572    0.0000 C   0  0  0  0  0  0  0  0  0  0  0  0
    1.6670    3.0122    0.0000 O   0  0  0  0  0  0  0  0  0  0  0  0
    1.1821    2.3447    0.0000 C   0  0  0  0  0  0  0  0  0  0  0  0
    0.5690    2.8968    0.0000 F   0  0  0  0  0  0  0  0  0  0  0  0
    0.5690    1.7927    0.0000 F   0  0  0  0  0  0  0  0  0  0  0  0
    1.6670    1.6773    0.0000 O   0  0  0  0  0  0  0  0  0  0  0  0
    2.4516    1.9322    0.0000 C   0  0  0  0  0  0  0  0  0  0  0  0
    3.8806   -0.5428    0.0000 C   0  0  0  0  0  0  0  0  0  0  0  0
    3.8806   -1.3678    0.0000 N   0  0  0  0  0  0  0  0  0  0  0  0
  1  2  1  0  0  0  0
  2  3  1  0  0  0  0
  3  4  2  0  0  0  0
  3  5  1  0  0  0  0
  5  6  2  0  0  0  0
  6  7  1  4  0  0  0
  8  7  1  0  0  0  0
  9  8  2  0  0  0  0
 10  9  1  0  0  0  0
 11 10  2  0  0  0  0
 11 12  1  0  0  0  0
 12 13  1  0  0  0  0
 13 14  1  0  0  0  0
 13 15  1  0  0  0  0
 13 16  1  0  0  0  0
 16 17  1  0  0  0  0
  7 17  2  0  0  0  0
 17 11  1  0  0  0  0
  5 18  1  0  0  0  0
 18 19  3  0  0  0  0
M  END
> <RowID>
504

> <Original_SMILES>
COC(=O)C(=CC1C=CC=C2OC(F)(F)OC=12)C#N

> <Canonical_QSARr>
COC(=O)C(=CC1C=CC=C2OC(F)(F)OC=12)C#N

> <InChI_Code_QSARr>
InChI=1S/C12H7F2NO4/c1-17-11(16)8(6-15)5-7-3-2-4-9-10(7)19-12(13,14)18-9/h2-5H,1H3

> <InChI Key_QSARr>
CDKRRBYJCYFHFJ-UHFFFAOYSA-N

> <Salt_Solvent>


> <Salt_Solvent_ID>
0

> <Number of connected components>
1

$$$$
Molecule_505
  Mrv2316 01072400032D          

 24 25  0  0  0  0            999 V2000
    3.5128   -4.1594    0.0000 O   0  0  0  0  0  0  0  0  0  0  0  0
    2.7983   -3.7469    0.0000 C   0  0  0  0  0  0  0  0  0  0  0  0
    2.7983   -2.9219    0.0000 O   0  0  0  0  0  0  0  0  0  0  0  0
    2.0839   -4.1594    0.0000 C   0  0  0  0  0  0  0  0  0  0  0  0
    1.3694   -3.7469    0.0000 C   0  0  0  0  0  0  0  0  0  0  0  0
    1.3694   -2.9219    0.0000 C   0  0  0  0  0  0  0  0  0  0  0  0
    0.6549   -2.5094    0.0000 N   0  0  0  0  0  0  0  0  0  0  0  0
    0.6549   -1.6844    0.0000 N   0  0  0  0  0  0  0  0  0  0  0  0
   -0.0595   -1.2719    0.0000 C   0  0  0  0  0  0  0  0  0  0  0  0
   -0.0595   -0.4469    0.0000 N   0  0  0  0  0  0  0  0  0  0  0  0
   -0.7740   -0.0344    0.0000 C   0  0  0  0  0  0  0  0  0  0  0  0
   -0.7740    0.7906    0.0000 C   0  0  0  0  0  0  0  0  0  0  0  0
   -1.4885    1.2031    0.0000 C   0  0  0  0  0  0  0  0  0  0  0  0
   -1.4885    2.0281    0.0000 F   0  0  0  0  0  0  0  0  0  0  0  0
   -2.2030    0.7906    0.0000 C   0  0  0  0  0  0  0  0  0  0  0  0
   -2.2030   -0.0344    0.0000 C   0  0  0  0  0  0  0  0  0  0  0  0
   -2.9174   -0.4469    0.0000 F   0  0  0  0  0  0  0  0  0  0  0  0
   -1.4885   -0.4469    0.0000 C   0  0  0  0  0  0  0  0  0  0  0  0
   -0.7740   -1.6844    0.0000 O   0  0  0  0  0  0  0  0  0  0  0  0
    2.0839   -2.5094    0.0000 C   0  0  0  0  0  0  0  0  0  0  0  0
    0.6549   -4.1594    0.0000 N   0  0  0  0  0  0  0  0  0  0  0  0
    0.6549   -4.9844    0.0000 C   0  0  0  0  0  0  0  0  0  0  0  0
    1.3694   -5.3969    0.0000 C   0  0  0  0  0  0  0  0  0  0  0  0
    2.0839   -4.9844    0.0000 C   0  0  0  0  0  0  0  0  0  0  0  0
  1  2  1  0  0  0  0
  2  3  2  0  0  0  0
  2  4  1  0  0  0  0
  5  4  2  0  0  0  0
  5  6  1  0  0  0  0
  7  6  1  4  0  0  0
  7  8  2  0  0  0  0
  8  9  1  0  0  0  0
  9 10  1  0  0  0  0
 10 11  1  0  0  0  0
 12 11  2  0  0  0  0
 13 12  1  0  0  0  0
 13 14  1  0  0  0  0
 15 13  2  0  0  0  0
 16 15  1  0  0  0  0
 16 17  1  0  0  0  0
 18 16  2  0  0  0  0
 11 18  1  0  0  0  0
  9 19  2  0  0  0  0
  6 20  1  0  0  0  0
 21  5  1  0  0  0  0
 22 21  2  0  0  0  0
 23 22  1  0  0  0  0
 24 23  2  0  0  0  0
  4 24  1  0  0  0  0
M  END
> <RowID>
505

> <Original_SMILES>
[Na+].CC(=NNC(=O)NC1C=C(F)C=C(F)C=1)C1=NC=CC=C1C([O-])=O

> <Canonical_QSARr>
CC(N=NC(=O)NC1C=C(F)C=C(F)C=1)C1N=CC=CC=1C(O)=O

> <InChI_Code_QSARr>
InChI=1S/C15H12F2N4O3/c1-8(13-12(14(22)23)3-2-4-18-13)20-21-15(24)19-11-6-9(16)5-10(17)7-11/h2-8H,1H3,(H,19,24)(H,22,23)

> <InChI Key_QSARr>
FTEVYEJWCKARQZ-UHFFFAOYSA-N

> <Salt_Solvent>
[Na+]

> <Salt_Solvent_ID>
110

> <Number of connected components>
2

$$$$
Molecule_508
  Mrv2316 01072400032D          

  8  7  0  0  0  0            999 V2000
    1.2375    2.1434    0.0000 C   0  0  0  0  0  0  0  0  0  0  0  0
    0.8250    1.4289    0.0000 C   0  0  0  0  0  0  0  0  0  0  0  0
   -0.0000    1.4289    0.0000 C   0  0  0  0  0  0  0  0  0  0  0  0
    1.2375    0.7145    0.0000 C   0  0  0  0  0  0  0  0  0  0  0  0
    2.0625    0.7145    0.0000 N   0  0  0  0  0  0  0  0  0  0  0  0
    0.8250   -0.0000    0.0000 C   0  0  0  0  0  0  0  0  0  0  0  0
    1.2375   -0.7145    0.0000 O   0  0  0  0  0  0  0  0  0  0  0  0
    0.0000   -0.0000    0.0000 O   0  0  0  0  0  0  0  0  0  0  0  0
  1  2  1  0  0  0  0
  2  3  1  0  0  0  0
  2  4  1  0  0  0  0
  4  5  1  0  0  0  0
  4  6  1  0  0  0  0
  6  7  1  0  0  0  0
  6  8  2  0  0  0  0
M  END
> <RowID>
508

> <Original_SMILES>
CC(C)C(N)C(O)=O

> <Canonical_QSARr>
CC(C)C(N)C(O)=O

> <InChI_Code_QSARr>
InChI=1S/C5H11NO2/c1-3(2)4(6)5(7)8/h3-4H,6H2,1-2H3,(H,7,8)

> <InChI Key_QSARr>
KZSNJWFQEVHDMF-UHFFFAOYSA-N

> <Salt_Solvent>


> <Salt_Solvent_ID>
0

> <Number of connected components>
1

$$$$
Molecule_509
  Mrv2316 01072400032D          

 21 23  0  0  0  0            999 V2000
    4.9141    3.1902    0.0000 C   0  0  0  0  0  0  0  0  0  0  0  0
    4.0983    3.3132    0.0000 O   0  0  0  0  0  0  0  0  0  0  0  0
    3.5840    2.6681    0.0000 C   0  0  0  0  0  0  0  0  0  0  0  0
    2.7682    2.7911    0.0000 C   0  0  0  0  0  0  0  0  0  0  0  0
    2.2538    2.1461    0.0000 C   0  0  0  0  0  0  0  0  0  0  0  0
    2.5552    1.3781    0.0000 C   0  0  0  0  0  0  0  0  0  0  0  0
    2.0408    0.7331    0.0000 C   0  0  0  0  0  0  0  0  0  0  0  0
    1.2365    0.9167    0.0000 S   0  0  0  0  0  0  0  0  0  0  0  0
    0.5915    0.4023    0.0000 C   0  0  0  0  0  0  0  0  0  0  0  0
   -0.1230    0.8148    0.0000 C   0  0  0  0  0  0  0  0  0  0  0  0
   -0.8374    0.4023    0.0000 C   0  0  0  0  0  0  0  0  0  0  0  0
   -0.8374   -0.4227    0.0000 C   0  0  0  0  0  0  0  0  0  0  0  0
   -0.1230   -0.8352    0.0000 C   0  0  0  0  0  0  0  0  0  0  0  0
    0.5915   -0.4227    0.0000 C   0  0  0  0  0  0  0  0  0  0  0  0
    1.2365   -0.9371    0.0000 N   0  0  0  0  0  0  0  0  0  0  0  0
    2.0408   -0.7535    0.0000 C   0  0  0  0  0  0  0  0  0  0  0  0
    2.5552   -1.3985    0.0000 O   0  0  0  0  0  0  0  0  0  0  0  0
    2.3988   -0.0102    0.0000 C   0  0  0  0  0  0  0  0  0  0  0  0
    3.2238   -0.0102    0.0000 O   0  0  0  0  0  0  0  0  0  0  0  0
    3.3710    1.2552    0.0000 C   0  0  0  0  0  0  0  0  0  0  0  0
    3.8854    1.9002    0.0000 C   0  0  0  0  0  0  0  0  0  0  0  0
  1  2  1  0  0  0  0
  2  3  1  0  0  0  0
  4  3  2  0  0  0  0
  5  4  1  0  0  0  0
  6  5  2  0  0  0  0
  6  7  1  0  0  0  0
  8  7  1  0  0  0  0
  9  8  1  0  0  0  0
  9 10  2  0  0  0  0
 10 11  1  0  0  0  0
 11 12  2  0  0  0  0
 12 13  1  0  0  0  0
 13 14  2  0  0  0  0
 14  9  1  0  0  0  0
 15 14  1  0  0  0  0
 16 15  1  0  0  0  0
 16 17  2  0  0  0  0
 18 16  1  0  0  0  0
  7 18  1  0  0  0  0
 18 19  1  0  0  0  0
 20  6  1  0  0  0  0
 21 20  2  0  0  0  0
  3 21  1  0  0  0  0
M  END
> <RowID>
509

> <Original_SMILES>
COC1=CC=C(C=C1)C1SC2=CC=CC=C2NC(=O)C1O

> <Canonical_QSARr>
COC1=CC=C(C=C1)C1SC2=CC=CC=C2NC(=O)C1O

> <InChI_Code_QSARr>
InChI=1S/C16H15NO3S/c1-20-11-8-6-10(7-9-11)15-14(18)16(19)17-12-4-2-3-5-13(12)21-15/h2-9,14-15,18H,1H3,(H,17,19)

> <InChI Key_QSARr>
LHBHZALHFIQJGJ-UHFFFAOYSA-N

> <Salt_Solvent>


> <Salt_Solvent_ID>
0

> <Number of connected components>
1

$$$$
Molecule_510
  Mrv2316 01072400032D          

 12 11  0  0  0  0            999 V2000
    0.4125    2.1434    0.0000 C   0  0  0  0  0  0  0  0  0  0  0  0
    0.8250    1.4289    0.0000 Si  0  0  0  0  0  0  0  0  0  0  0  0
    0.1105    1.0164    0.0000 C   0  0  0  0  0  0  0  0  0  0  0  0
   -0.6039    1.4289    0.0000 C   0  0  0  0  0  0  0  0  0  0  0  0
   -1.3184    1.0164    0.0000 C   0  0  0  0  0  0  0  0  0  0  0  0
   -2.0329    1.4289    0.0000 Cl  0  0  0  0  0  0  0  0  0  0  0  0
    1.5395    1.8414    0.0000 O   0  0  0  0  0  0  0  0  0  0  0  0
    2.2539    1.4289    0.0000 C   0  0  0  0  0  0  0  0  0  0  0  0
    2.9684    1.8414    0.0000 C   0  0  0  0  0  0  0  0  0  0  0  0
    1.2375    0.7144    0.0000 O   0  0  0  0  0  0  0  0  0  0  0  0
    0.8250   -0.0000    0.0000 C   0  0  0  0  0  0  0  0  0  0  0  0
   -0.0000   -0.0000    0.0000 C   0  0  0  0  0  0  0  0  0  0  0  0
  1  2  1  0  0  0  0
  2  3  1  0  0  0  0
  3  4  1  0  0  0  0
  4  5  1  0  0  0  0
  5  6  1  0  0  0  0
  2  7  1  0  0  0  0
  7  8  1  0  0  0  0
  8  9  1  0  0  0  0
  2 10  1  0  0  0  0
 10 11  1  0  0  0  0
 11 12  1  0  0  0  0
M  END
> <RowID>
510

> <Original_SMILES>
C[Si](CCCCl)(OCC)OCC

> <Canonical_QSARr>
C[Si](CCCCl)(OCC)OCC

> <InChI_Code_QSARr>
InChI=1S/C8H19ClO2Si/c1-4-10-12(3,11-5-2)8-6-7-9/h4-8H2,1-3H3

> <InChI Key_QSARr>
KEZMLECYELSZDC-UHFFFAOYSA-N

> <Salt_Solvent>


> <Salt_Solvent_ID>
0

> <Number of connected components>
1

$$$$
Molecule_511
  Mrv2316 01072400032D          

 46 49  0  0  0  0            999 V2000
    1.6775   -9.9000    0.0000 C   0  0  0  0  0  0  0  0  0  0  0  0
    1.6775   -9.0750    0.0000 C   0  0  0  0  0  0  0  0  0  0  0  0
    0.9630   -8.6625    0.0000 O   0  0  0  0  0  0  0  0  0  0  0  0
    2.3919   -8.6625    0.0000 C   0  0  0  0  0  0  0  0  0  0  0  0
    2.3919   -7.8375    0.0000 N   0  0  0  0  0  0  0  0  0  0  0  0
    3.1064   -7.4250    0.0000 N   0  0  0  0  0  0  0  0  0  0  0  0
    3.1064   -6.6000    0.0000 C   0  0  0  0  0  0  0  0  0  0  0  0
    3.8209   -6.1875    0.0000 C   0  0  0  0  0  0  0  0  0  0  0  0
    3.8209   -5.3625    0.0000 C   0  0  0  0  0  0  0  0  0  0  0  0
    3.1064   -4.9500    0.0000 C   0  0  0  0  0  0  0  0  0  0  0  0
    3.1064   -4.1250    0.0000 C   0  0  0  0  0  0  0  0  0  0  0  0
    3.8209   -3.7125    0.0000 C   0  0  0  0  0  0  0  0  0  0  0  0
    3.8209   -2.8875    0.0000 C   0  0  0  0  0  0  0  0  0  0  0  0
    4.5353   -2.4750    0.0000 Cl  0  0  0  0  0  0  0  0  0  0  0  0
    3.1064   -2.4750    0.0000 C   0  0  0  0  0  0  0  0  0  0  0  0
    3.1064   -1.6500    0.0000 N   0  0  0  0  0  0  0  0  0  0  0  0
    3.8209   -1.2375    0.0000 N   0  0  0  0  0  0  0  0  0  0  0  0
    3.8209   -0.4125    0.0000 C   0  0  0  0  0  0  0  0  0  0  0  0
    4.5353    0.0000    0.0000 C   0  0  0  0  0  0  0  0  0  0  0  0
    5.2498   -0.4125    0.0000 O   0  0  0  0  0  0  0  0  0  0  0  0
    4.5353    0.8250    0.0000 N   0  0  0  0  0  0  0  0  0  0  0  0
    5.2498    1.2375    0.0000 C   0  0  0  0  0  0  0  0  0  0  0  0
    5.9643    0.8250    0.0000 C   0  0  0  0  0  0  0  0  0  0  0  0
    6.6788    1.2375    0.0000 C   0  0  0  0  0  0  0  0  0  0  0  0
    6.6788    2.0625    0.0000 C   0  0  0  0  0  0  0  0  0  0  0  0
    7.3932    2.4750    0.0000 C   0  0  0  0  0  0  0  0  0  0  0  0
    5.9643    2.4750    0.0000 C   0  0  0  0  0  0  0  0  0  0  0  0
    5.2498    2.0625    0.0000 C   0  0  0  0  0  0  0  0  0  0  0  0
    3.1064    0.0000    0.0000 C   0  0  0  0  0  0  0  0  0  0  0  0
    2.3919   -0.4125    0.0000 C   0  0  0  0  0  0  0  0  0  0  0  0
    3.1064    0.8250    0.0000 O   0  0  0  0  0  0  0  0  0  0  0  0
    2.3919   -2.8875    0.0000 C   0  0  0  0  0  0  0  0  0  0  0  0
    2.3919   -3.7125    0.0000 C   0  0  0  0  0  0  0  0  0  0  0  0
    2.3919   -5.3625    0.0000 C   0  0  0  0  0  0  0  0  0  0  0  0
    2.3919   -6.1875    0.0000 C   0  0  0  0  0  0  0  0  0  0  0  0
    1.6775   -6.6000    0.0000 Cl  0  0  0  0  0  0  0  0  0  0  0  0
    3.1064   -9.0750    0.0000 C   0  0  0  0  0  0  0  0  0  0  0  0
    3.8209   -8.6625    0.0000 O   0  0  0  0  0  0  0  0  0  0  0  0
    3.1064   -9.9000    0.0000 N   0  0  0  0  0  0  0  0  0  0  0  0
    3.8209  -10.3125    0.0000 C   0  0  0  0  0  0  0  0  0  0  0  0
    3.8209  -11.1375    0.0000 C   0  0  0  0  0  0  0  0  0  0  0  0
    4.5353  -11.5500    0.0000 C   0  0  0  0  0  0  0  0  0  0  0  0
    5.2498  -11.1375    0.0000 C   0  0  0  0  0  0  0  0  0  0  0  0
    5.9643  -11.5500    0.0000 C   0  0  0  0  0  0  0  0  0  0  0  0
    5.2498  -10.3125    0.0000 C   0  0  0  0  0  0  0  0  0  0  0  0
    4.5353   -9.9000    0.0000 C   0  0  0  0  0  0  0  0  0  0  0  0
  1  2  1  0  0  0  0
  2  3  2  0  0  0  0
  2  4  1  0  0  0  0
  5  4  1  4  0  0  0
  5  6  2  0  0  0  0
  6  7  1  0  0  0  0
  8  7  2  0  0  0  0
  9  8  1  0  0  0  0
 10  9  2  0  0  0  0
 10 11  1  0  0  0  0
 12 11  2  0  0  0  0
 13 12  1  0  0  0  0
 13 14  1  0  0  0  0
 15 13  2  0  0  0  0
 16 15  1  4  0  0  0
 16 17  2  0  0  0  0
 17 18  1  0  0  0  0
 18 19  1  0  0  0  0
 19 20  2  0  0  0  0
 19 21  1  0  0  0  0
 21 22  1  0  0  0  0
 23 22  1  0  0  0  0
 24 23  2  0  0  0  0
 25 24  1  0  0  0  0
 25 26  1  0  0  0  0
 27 25  2  0  0  0  0
 28 27  1  0  0  0  0
 22 28  2  0  0  0  0
 18 29  1  0  0  0  0
 29 30  1  0  0  0  0
 29 31  2  0  0  0  0
 32 15  1  0  0  0  0
 33 32  2  0  0  0  0
 11 33  1  0  0  0  0
 34 10  1  0  0  0  0
 35 34  2  0  0  0  0
  7 35  1  0  0  0  0
 35 36  1  0  0  0  0
  4 37  1  0  0  0  0
 37 38  2  0  0  0  0
 37 39  1  0  0  0  0
 39 40  1  0  0  0  0
 41 40  1  0  0  0  0
 42 41  2  0  0  0  0
 43 42  1  0  0  0  0
 43 44  1  0  0  0  0
 45 43  2  0  0  0  0
 46 45  1  0  0  0  0
 40 46  2  0  0  0  0
M  END
> <RowID>
511

> <Original_SMILES>
CC(=O)C(N=NC1=CC=C(C=C1Cl)C1=CC(Cl)=C(C=C1)N=NC(C(=O)NC1C=CC(C)=CC=1)C(C)=O)C(=O)NC1C=CC(C)=CC=1

> <Canonical_QSARr>
CC(=O)C(N=NC1=CC=C(C=C1Cl)C1=CC(Cl)=C(C=C1)N=NC(C(=O)NC1C=CC(C)=CC=1)C(C)=O)C(=O)NC1C=CC(C)=CC=1

> <InChI_Code_QSARr>
InChI=1S/C34H30Cl2N6O4/c1-19-5-11-25(12-6-19)37-33(45)31(21(3)43)41-39-29-15-9-23(17-27(29)35)24-10-16-30(28(36)18-24)40-42-32(22(4)44)34(46)38-26-13-7-20(2)8-14-26/h5-18,31-32H,1-4H3,(H,37,45)(H,38,46)

> <InChI Key_QSARr>
UCUHCYVCVYRSER-UHFFFAOYSA-N

> <Salt_Solvent>


> <Salt_Solvent_ID>
0

> <Number of connected components>
1

$$$$
Molecule_512
  Mrv2316 01072400032D          

 11 11  0  0  0  0            999 V2000
    1.7537    0.0375    0.0000 N   0  0  0  0  0  0  0  0  0  0  0  0
    1.0392    0.4500    0.0000 C   0  0  0  0  0  0  0  0  0  0  0  0
    1.0392    1.2750    0.0000 N   0  0  0  0  0  0  0  0  0  0  0  0
    0.3248    1.6875    0.0000 C   0  0  0  0  0  0  0  0  0  0  0  0
    0.3248    2.5125    0.0000 N   0  0  0  0  0  0  0  0  0  0  0  0
   -0.3897    1.2750    0.0000 N   0  0  0  0  0  0  0  0  0  0  0  0
   -0.3897    0.4500    0.0000 C   0  0  0  0  0  0  0  0  0  0  0  0
   -1.1042    0.0375    0.0000 N   0  0  0  0  0  0  0  0  0  0  0  0
    0.3248    0.0375    0.0000 C   0  0  0  0  0  0  0  0  0  0  0  0
    0.3248   -0.7875    0.0000 N   0  0  0  0  0  0  0  0  0  0  0  0
    1.0392   -1.2000    0.0000 O   0  0  0  0  0  0  0  0  0  0  0  0
  1  2  1  0  0  0  0
  3  2  1  0  0  0  0
  4  3  2  0  0  0  0
  4  5  1  0  0  0  0
  6  4  1  0  0  0  0
  7  6  2  0  0  0  0
  7  8  1  0  0  0  0
  9  7  1  0  0  0  0
  2  9  2  0  0  0  0
  9 10  1  0  0  0  0
 10 11  2  0  0  0  0
M  END
> <RowID>
512

> <Original_SMILES>
NC1N=C(N)N=C(N)C=1N=O

> <Canonical_QSARr>
NC1N=C(N)N=C(N)C=1N=O

> <InChI_Code_QSARr>
InChI=1S/C4H6N6O/c5-2-1(10-11)3(6)9-4(7)8-2/h(H6,5,6,7,8,9)

> <InChI Key_QSARr>
XLQQJSWJHHKLOK-UHFFFAOYSA-N

> <Salt_Solvent>


> <Salt_Solvent_ID>
0

> <Number of connected components>
1

$$$$
Molecule_513
  Mrv2316 01072400032D          

 54 59  0  0  0  0            999 V2000
   -2.3816   -1.6500    0.0000 O   0  0  0  0  0  0  0  0  0  0  0  0
   -1.6671   -1.2375    0.0000 S   0  0  0  0  0  0  0  0  0  0  0  0
   -2.0796   -0.5230    0.0000 O   0  0  0  0  0  0  0  0  0  0  0  0
   -1.2546   -1.9520    0.0000 O   0  0  0  0  0  0  0  0  0  0  0  0
   -0.9526   -0.8250    0.0000 C   0  0  0  0  0  0  0  0  0  0  0  0
   -0.2382   -1.2375    0.0000 C   0  0  0  0  0  0  0  0  0  0  0  0
    0.4763   -0.8250    0.0000 C   0  0  0  0  0  0  0  0  0  0  0  0
    0.4763    0.0000    0.0000 C   0  0  0  0  0  0  0  0  0  0  0  0
    1.1908    0.4125    0.0000 C   0  0  0  0  0  0  0  0  0  0  0  0
    1.9053    0.0000    0.0000 C   0  0  0  0  0  0  0  0  0  0  0  0
    1.9053   -0.8250    0.0000 C   0  0  0  0  0  0  0  0  0  0  0  0
    1.1908   -1.2375    0.0000 C   0  0  0  0  0  0  0  0  0  0  0  0
    2.6197   -1.2375    0.0000 S   0  0  0  0  0  0  0  0  0  0  0  0
    3.3342   -1.6500    0.0000 O   0  0  0  0  0  0  0  0  0  0  0  0
    2.2072   -1.9520    0.0000 O   0  0  0  0  0  0  0  0  0  0  0  0
    3.0322   -0.5230    0.0000 O   0  0  0  0  0  0  0  0  0  0  0  0
    2.6197    0.4125    0.0000 N   0  0  0  0  0  0  0  0  0  0  0  0
    3.3342    0.0000    0.0000 N   0  0  0  0  0  0  0  0  0  0  0  0
    4.0487    0.4125    0.0000 C   0  0  0  0  0  0  0  0  0  0  0  0
    4.7631   -0.0000    0.0000 C   0  0  0  0  0  0  0  0  0  0  0  0
    4.7631   -0.8250    0.0000 O   0  0  0  0  0  0  0  0  0  0  0  0
    5.4776   -1.2375    0.0000 C   0  0  0  0  0  0  0  0  0  0  0  0
    5.4776   -2.0625    0.0000 C   0  0  0  0  0  0  0  0  0  0  0  0
    4.7631   -2.4750    0.0000 C   0  0  0  0  0  0  0  0  0  0  0  0
    6.1921   -2.4750    0.0000 C   0  0  0  0  0  0  0  0  0  0  0  0
    6.9066   -2.0625    0.0000 C   0  0  0  0  0  0  0  0  0  0  0  0
    6.9066   -1.2375    0.0000 C   0  0  0  0  0  0  0  0  0  0  0  0
    6.1921   -0.8250    0.0000 C   0  0  0  0  0  0  0  0  0  0  0  0
    5.4776    0.4125    0.0000 C   0  0  0  0  0  0  0  0  0  0  0  0
    5.4776    1.2375    0.0000 C   0  0  0  0  0  0  0  0  0  0  0  0
    6.1921    1.6500    0.0000 O   0  0  0  0  0  0  0  0  0  0  0  0
    6.1921    2.4750    0.0000 C   0  0  0  0  0  0  0  0  0  0  0  0
    6.9066    2.8875    0.0000 C   0  0  0  0  0  0  0  0  0  0  0  0
    7.6210    2.4750    0.0000 C   0  0  0  0  0  0  0  0  0  0  0  0
    6.9066    3.7125    0.0000 C   0  0  0  0  0  0  0  0  0  0  0  0
    6.1921    4.1250    0.0000 C   0  0  0  0  0  0  0  0  0  0  0  0
    5.4776    3.7125    0.0000 C   0  0  0  0  0  0  0  0  0  0  0  0
    5.4776    2.8875    0.0000 C   0  0  0  0  0  0  0  0  0  0  0  0
    4.7631    1.6500    0.0000 C   0  0  0  0  0  0  0  0  0  0  0  0
    4.0487    1.2375    0.0000 C   0  0  0  0  0  0  0  0  0  0  0  0
    1.1908    1.2375    0.0000 O   0  0  0  0  0  0  0  0  0  0  0  0
   -0.2382    0.4125    0.0000 C   0  0  0  0  0  0  0  0  0  0  0  0
   -0.2382    1.2375    0.0000 N   0  0  0  0  0  0  0  0  0  0  0  0
   -0.9526    1.6500    0.0000 S   0  0  0  0  0  0  0  0  0  0  0  0
   -1.6671    2.0625    0.0000 C   0  0  0  0  0  0  0  0  0  0  0  0
   -1.6671    2.8875    0.0000 C   0  0  0  0  0  0  0  0  0  0  0  0
   -2.3816    3.3000    0.0000 C   0  0  0  0  0  0  0  0  0  0  0  0
   -3.0960    2.8875    0.0000 C   0  0  0  0  0  0  0  0  0  0  0  0
   -3.8105    3.3000    0.0000 C   0  0  0  0  0  0  0  0  0  0  0  0
   -3.0960    2.0625    0.0000 C   0  0  0  0  0  0  0  0  0  0  0  0
   -2.3816    1.6500    0.0000 C   0  0  0  0  0  0  0  0  0  0  0  0
   -0.5401    2.3645    0.0000 O   0  0  0  0  0  0  0  0  0  0  0  0
   -1.3651    0.9355    0.0000 O   0  0  0  0  0  0  0  0  0  0  0  0
   -0.9526    0.0000    0.0000 C   0  0  0  0  0  0  0  0  0  0  0  0
  1  2  1  0  0  0  0
  2  3  2  0  0  0  0
  2  4  2  0  0  0  0
  2  5  1  0  0  0  0
  6  5  2  0  0  0  0
  7  6  1  0  0  0  0
  7  8  1  0  0  0  0
  8  9  2  0  0  0  0
  9 10  1  0  0  0  0
 10 11  2  0  0  0  0
 11 12  1  0  0  0  0
 12  7  2  0  0  0  0
 11 13  1  0  0  0  0
 13 14  1  0  0  0  0
 13 15  2  0  0  0  0
 13 16  2  0  0  0  0
 17 10  1  4  0  0  0
 17 18  2  0  0  0  0
 18 19  1  0  0  0  0
 20 19  2  0  0  0  0
 20 21  1  0  0  0  0
 21 22  1  0  0  0  0
 23 22  2  0  0  0  0
 23 24  1  0  0  0  0
 25 23  1  0  0  0  0
 26 25  2  0  0  0  0
 27 26  1  0  0  0  0
 28 27  2  0  0  0  0
 22 28  1  0  0  0  0
 29 20  1  0  0  0  0
 30 29  2  0  0  0  0
 30 31  1  0  0  0  0
 31 32  1  0  0  0  0
 33 32  2  0  0  0  0
 33 34  1  0  0  0  0
 35 33  1  0  0  0  0
 36 35  2  0  0  0  0
 37 36  1  0  0  0  0
 38 37  2  0  0  0  0
 32 38  1  0  0  0  0
 39 30  1  0  0  0  0
 40 39  2  0  0  0  0
 19 40  1  0  0  0  0
  9 41  1  0  0  0  0
 42  8  1  0  0  0  0
 42 43  1  0  0  0  0
 43 44  1  0  0  0  0
 44 45  1  0  0  0  0
 46 45  2  0  0  0  0
 47 46  1  0  0  0  0
 48 47  2  0  0  0  0
 48 49  1  0  0  0  0
 50 48  1  0  0  0  0
 51 50  2  0  0  0  0
 45 51  1  0  0  0  0
 44 52  2  0  0  0  0
 44 53  2  0  0  0  0
 54 42  2  0  0  0  0
  5 54  1  0  0  0  0
M  END
> <RowID>
513

> <Original_SMILES>
[Na+].[Na+].CC1C=CC(=CC=1)S(=O)(=O)NC1C=C(C=C2C=C(C(N=NC3C=CC(=CC=3OC3C=CC=CC=3C)OC3C=CC=CC=3C)=C(O)C2=1)S([O-])(=O)=O)S([O-])(=O)=O

> <Canonical_QSARr>
CC1C=CC(=CC=1)S(=O)(=O)NC1=CC(=CC2=CC(=C(N=NC3C=CC(=CC=3OC3C=CC=CC=3C)OC3C=CC=CC=3C)C(O)=C12)S(O)(=O)=O)S(O)(=O)=O

> <InChI_Code_QSARr>
InChI=1S/C37H31N3O11S3/c1-22-12-15-27(16-13-22)52(42,43)40-30-21-28(53(44,45)46)18-25-19-34(54(47,48)49)36(37(41)35(25)30)39-38-29-17-14-26(50-31-10-6-4-8-23(31)2)20-33(29)51-32-11-7-5-9-24(32)3/h4-21,40-41H,1-3H3,(H,44,45,46)(H,47,48,49)

> <InChI Key_QSARr>
NVMGCGBELVIYMJ-UHFFFAOYSA-N

> <Salt_Solvent>
[Na+]

> <Salt_Solvent_ID>
110

> <Number of connected components>
3

$$$$
Molecule_514
  Mrv2316 01072400032D          

  8  7  0  0  0  0            999 V2000
    1.0461    1.4289    0.0000 O   0  0  0  0  0  0  0  0  0  0  0  0
    1.7605    1.8414    0.0000 C   0  0  0  0  0  0  0  0  0  0  0  0
    2.4750    1.4289    0.0000 C   0  0  0  0  0  0  0  0  0  0  0  0
    3.1895    1.8414    0.0000 C   0  0  0  0  0  0  0  0  0  0  0  0
    3.9039    1.4289    0.0000 C   0  0  0  0  0  0  0  0  0  0  0  0
    4.6184    1.8414    0.0000 C   0  0  0  0  0  0  0  0  0  0  0  0
    5.3329    1.4289    0.0000 C   0  0  0  0  0  0  0  0  0  0  0  0
    6.0474    1.8414    0.0000 O   0  0  0  0  0  0  0  0  0  0  0  0
  1  2  1  0  0  0  0
  2  3  1  0  0  0  0
  3  4  1  0  0  0  0
  4  5  1  0  0  0  0
  5  6  1  0  0  0  0
  6  7  1  0  0  0  0
  7  8  1  0  0  0  0
M  END
> <RowID>
514

> <Original_SMILES>
OCCCCCCO

> <Canonical_QSARr>
OCCCCCCO

> <InChI_Code_QSARr>
InChI=1S/C6H14O2/c7-5-3-1-2-4-6-8/h7-8H,1-6H2

> <InChI Key_QSARr>
XXMIOPMDWAUFGU-UHFFFAOYSA-N

> <Salt_Solvent>


> <Salt_Solvent_ID>
0

> <Number of connected components>
1

$$$$
Molecule_515
  Mrv2316 01072400032D          

 15 17  0  0  0  0            999 V2000
    3.3912   -1.2338    0.0000 C   0  0  0  0  0  0  0  0  0  0  0  0
    4.2162   -1.2338    0.0000 C   0  0  0  0  0  0  0  0  0  0  0  0
    4.7306   -0.5888    0.0000 C   0  0  0  0  0  0  0  0  0  0  0  0
    5.5189   -0.8320    0.0000 C   0  0  0  0  0  0  0  0  0  0  0  0
    6.1237   -0.2708    0.0000 C   0  0  0  0  0  0  0  0  0  0  0  0
    5.9401    0.5335    0.0000 C   0  0  0  0  0  0  0  0  0  0  0  0
    5.1517    0.7767    0.0000 C   0  0  0  0  0  0  0  0  0  0  0  0
    4.5470    0.2155    0.0000 C   0  0  0  0  0  0  0  0  0  0  0  0
    3.8037    0.5735    0.0000 N   0  0  0  0  0  0  0  0  0  0  0  0
    3.0604    0.2155    0.0000 C   0  0  0  0  0  0  0  0  0  0  0  0
    2.4556    0.7767    0.0000 C   0  0  0  0  0  0  0  0  0  0  0  0
    1.6673    0.5335    0.0000 C   0  0  0  0  0  0  0  0  0  0  0  0
    1.4837   -0.2708    0.0000 C   0  0  0  0  0  0  0  0  0  0  0  0
    2.0885   -0.8320    0.0000 C   0  0  0  0  0  0  0  0  0  0  0  0
    2.8768   -0.5888    0.0000 C   0  0  0  0  0  0  0  0  0  0  0  0
  2  1  1  0  0  0  0
  3  2  1  0  0  0  0
  3  4  2  0  0  0  0
  4  5  1  0  0  0  0
  5  6  2  0  0  0  0
  6  7  1  0  0  0  0
  7  8  2  0  0  0  0
  8  3  1  0  0  0  0
  9  8  1  0  0  0  0
 10  9  1  0  0  0  0
 10 11  2  0  0  0  0
 11 12  1  0  0  0  0
 12 13  2  0  0  0  0
 13 14  1  0  0  0  0
 14 15  2  0  0  0  0
  1 15  1  0  0  0  0
 15 10  1  0  0  0  0
M  END
> <RowID>
515

> <Original_SMILES>
C1CC2=CC=CC=C2NC2=CC=CC=C21

> <Canonical_QSARr>
C1CC2=CC=CC=C2NC2=CC=CC=C21

> <InChI_Code_QSARr>
InChI=1S/C14H13N/c1-3-7-13-11(5-1)9-10-12-6-2-4-8-14(12)15-13/h1-8,15H,9-10H2

> <InChI Key_QSARr>
ZSMRRZONCYIFNB-UHFFFAOYSA-N

> <Salt_Solvent>


> <Salt_Solvent_ID>
0

> <Number of connected components>
1

$$$$
Molecule_516
  Mrv2316 01072400032D          

 12 12  0  0  0  0            999 V2000
    2.4411   -0.9281    0.0000 N   0  0  0  0  0  0  0  0  0  0  0  0
    1.7266   -0.5156    0.0000 C   0  0  0  0  0  0  0  0  0  0  0  0
    1.7266    0.3094    0.0000 C   0  0  0  0  0  0  0  0  0  0  0  0
    1.0122    0.7219    0.0000 C   0  0  0  0  0  0  0  0  0  0  0  0
    1.0122    1.5469    0.0000 S   0  0  0  0  0  0  0  0  0  0  0  0
    1.0122    2.3719    0.0000 O   0  0  0  0  0  0  0  0  0  0  0  0
    0.1872    1.5469    0.0000 O   0  0  0  0  0  0  0  0  0  0  0  0
    1.8372    1.5469    0.0000 O   0  0  0  0  0  0  0  0  0  0  0  0
    0.2977    0.3094    0.0000 C   0  0  0  0  0  0  0  0  0  0  0  0
    0.2977   -0.5156    0.0000 C   0  0  0  0  0  0  0  0  0  0  0  0
    1.0122   -0.9281    0.0000 C   0  0  0  0  0  0  0  0  0  0  0  0
    1.0122   -1.7531    0.0000 N   0  0  0  0  0  0  0  0  0  0  0  0
  1  2  1  0  0  0  0
  3  2  2  0  0  0  0
  4  3  1  0  0  0  0
  4  5  1  0  0  0  0
  5  6  1  0  0  0  0
  5  7  2  0  0  0  0
  5  8  2  0  0  0  0
  9  4  2  0  0  0  0
 10  9  1  0  0  0  0
 11 10  2  0  0  0  0
  2 11  1  0  0  0  0
 11 12  1  0  0  0  0
M  END
> <RowID>
516

> <Original_SMILES>
NC1=CC(=CC=C1N)S(O)(=O)=O

> <Canonical_QSARr>
NC1=CC(=CC=C1N)S(O)(=O)=O

> <InChI_Code_QSARr>
InChI=1S/C6H8N2O3S/c7-5-2-1-4(3-6(5)8)12(9,10)11/h1-3H,7-8H2,(H,9,10,11)

> <InChI Key_QSARr>
FKSRSWQTEJTBMI-UHFFFAOYSA-N

> <Salt_Solvent>


> <Salt_Solvent_ID>
0

> <Number of connected components>
1

$$$$
Molecule_517
  Mrv2316 01072400032D          

 27 28  0  0  0  0            999 V2000
    3.7437  -12.9055    0.0000 C   0  0  0  0  0  0  0  0  0  0  0  0
    4.3382  -12.3335    0.0000 C   0  0  0  0  0  0  0  0  0  0  0  0
    4.1400  -11.5326    0.0000 C   0  0  0  0  0  0  0  0  0  0  0  0
    5.1308  -12.5623    0.0000 C   0  0  0  0  0  0  0  0  0  0  0  0
    5.7253  -11.9903    0.0000 O   0  0  0  0  0  0  0  0  0  0  0  0
    6.5179  -12.2191    0.0000 C   0  0  0  0  0  0  0  0  0  0  0  0
    6.7161  -13.0199    0.0000 C   0  0  0  0  0  0  0  0  0  0  0  0
    7.1124  -11.6470    0.0000 O   0  0  0  0  0  0  0  0  0  0  0  0
    7.9050  -11.8759    0.0000 C   0  0  0  0  0  0  0  0  0  0  0  0
    8.4995  -11.3038    0.0000 C   0  0  0  0  0  0  0  0  0  0  0  0
    9.2922  -11.5326    0.0000 N   0  0  0  0  0  0  0  0  0  0  0  0
    9.4903  -12.3335    0.0000 C   0  0  0  0  0  0  0  0  0  0  0  0
    8.8958  -12.9055    0.0000 C   0  0  0  0  0  0  0  0  0  0  0  0
    9.8866  -10.9606    0.0000 C   0  0  0  0  0  0  0  0  0  0  0  0
   10.6793  -11.1894    0.0000 C   0  0  0  0  0  0  0  0  0  0  0  0
   11.2737  -10.6174    0.0000 C   0  0  0  0  0  0  0  0  0  0  0  0
   11.0756   -9.8165    0.0000 C   0  0  0  0  0  0  0  0  0  0  0  0
   11.6701   -9.2445    0.0000 N   0  0  0  0  0  0  0  0  0  0  0  0
   12.4627   -9.4733    0.0000 N   0  0  0  0  0  0  0  0  0  0  0  0
   13.0572   -8.9013    0.0000 C   0  0  0  0  0  0  0  0  0  0  0  0
   13.8498   -9.1301    0.0000 C   0  0  0  0  0  0  0  0  0  0  0  0
   14.4443   -8.5581    0.0000 C   0  0  0  0  0  0  0  0  0  0  0  0
   14.2461   -7.7572    0.0000 C   0  0  0  0  0  0  0  0  0  0  0  0
   13.4535   -7.5284    0.0000 C   0  0  0  0  0  0  0  0  0  0  0  0
   12.8590   -8.1004    0.0000 C   0  0  0  0  0  0  0  0  0  0  0  0
   10.2830   -9.5877    0.0000 C   0  0  0  0  0  0  0  0  0  0  0  0
    9.6885  -10.1598    0.0000 C   0  0  0  0  0  0  0  0  0  0  0  0
  1  2  1  0  0  0  0
  2  3  1  0  0  0  0
  2  4  1  0  0  0  0
  4  5  1  0  0  0  0
  5  6  1  0  0  0  0
  6  7  1  0  0  0  0
  6  8  1  0  0  0  0
  8  9  1  0  0  0  0
  9 10  1  0  0  0  0
 10 11  1  0  0  0  0
 11 12  1  0  0  0  0
 12 13  1  0  0  0  0
 11 14  1  0  0  0  0
 15 14  2  0  0  0  0
 16 15  1  0  0  0  0
 17 16  2  0  0  0  0
 18 17  1  4  0  0  0
 18 19  2  0  0  0  0
 19 20  1  0  0  0  0
 21 20  2  0  0  0  0
 22 21  1  0  0  0  0
 23 22  2  0  0  0  0
 24 23  1  0  0  0  0
 25 24  2  0  0  0  0
 20 25  1  0  0  0  0
 26 17  1  0  0  0  0
 27 26  2  0  0  0  0
 14 27  1  0  0  0  0
M  END
> <RowID>
517

> <Original_SMILES>
CC(C)COC(C)OCCN(CC)C1=CC=C(C=C1)N=NC1=CC=CC=C1

> <Canonical_QSARr>
CC(C)COC(C)OCCN(CC)C1=CC=C(C=C1)N=NC1=CC=CC=C1

> <InChI_Code_QSARr>
InChI=1S/C22H31N3O2/c1-5-25(15-16-26-19(4)27-17-18(2)3)22-13-11-21(12-14-22)24-23-20-9-7-6-8-10-20/h6-14,18-19H,5,15-17H2,1-4H3

> <InChI Key_QSARr>
BATVZJPOLFSGTD-UHFFFAOYSA-N

> <Salt_Solvent>


> <Salt_Solvent_ID>
0

> <Number of connected components>
1

$$$$
Molecule_518
  Mrv2316 01072400032D          

 33 33  0  0  0  0            999 V2000
   -4.2216    1.5377    0.0000 C   0  0  0  0  0  0  0  0  0  0  0  0
   -3.5072    1.1252    0.0000 C   0  0  0  0  0  0  0  0  0  0  0  0
   -2.7927    1.5377    0.0000 O   0  0  0  0  0  0  0  0  0  0  0  0
   -2.0782    1.1252    0.0000 C   0  0  0  0  0  0  0  0  0  0  0  0
   -2.0782    0.3002    0.0000 O   0  0  0  0  0  0  0  0  0  0  0  0
   -1.3638    1.5377    0.0000 C   0  0  0  0  0  0  0  0  0  0  0  0
   -0.6493    1.1252    0.0000 C   0  0  0  0  0  0  0  0  0  0  0  0
    0.0652    1.5377    0.0000 C   0  0  0  0  0  0  0  0  0  0  0  0
    0.7797    1.1252    0.0000 Cl  0  0  0  0  0  0  0  0  0  0  0  0
    0.0652    2.3627    0.0000 C   0  0  0  0  0  0  0  0  0  0  0  0
    0.7797    2.7752    0.0000 O   0  0  0  0  0  0  0  0  0  0  0  0
    1.4941    2.3627    0.0000 C   0  0  0  0  0  0  0  0  0  0  0  0
    1.4941    1.5377    0.0000 O   0  0  0  0  0  0  0  0  0  0  0  0
    2.2086    2.7752    0.0000 O   0  0  0  0  0  0  0  0  0  0  0  0
    2.9231    2.3627    0.0000 C   0  0  0  0  0  0  0  0  0  0  0  0
    3.6375    2.7752    0.0000 C   0  0  0  0  0  0  0  0  0  0  0  0
    4.3520    2.3627    0.0000 C   0  0  0  0  0  0  0  0  0  0  0  0
    5.0665    2.7752    0.0000 C   0  0  0  0  0  0  0  0  0  0  0  0
    5.7810    2.3627    0.0000 C   0  0  0  0  0  0  0  0  0  0  0  0
    6.4954    2.7752    0.0000 C   0  0  0  0  0  0  0  0  0  0  0  0
    7.2099    2.3627    0.0000 C   0  0  0  0  0  0  0  0  0  0  0  0
    7.9244    2.7752    0.0000 C   0  0  0  0  0  0  0  0  0  0  0  0
    8.6388    2.3627    0.0000 C   0  0  0  0  0  0  0  0  0  0  0  0
    9.3533    2.7752    0.0000 C   0  0  0  0  0  0  0  0  0  0  0  0
   10.0678    2.3627    0.0000 C   0  0  0  0  0  0  0  0  0  0  0  0
   10.7823    2.7752    0.0000 C   0  0  0  0  0  0  0  0  0  0  0  0
   11.4967    2.3627    0.0000 C   0  0  0  0  0  0  0  0  0  0  0  0
   12.2112    2.7752    0.0000 C   0  0  0  0  0  0  0  0  0  0  0  0
   12.9257    2.3627    0.0000 C   0  0  0  0  0  0  0  0  0  0  0  0
   13.6401    2.7752    0.0000 C   0  0  0  0  0  0  0  0  0  0  0  0
   -0.6493    2.7752    0.0000 C   0  0  0  0  0  0  0  0  0  0  0  0
   -0.6493    3.6002    0.0000 Cl  0  0  0  0  0  0  0  0  0  0  0  0
   -1.3638    2.3627    0.0000 C   0  0  0  0  0  0  0  0  0  0  0  0
  1  2  1  0  0  0  0
  2  3  1  0  0  0  0
  3  4  1  0  0  0  0
  4  5  2  0  0  0  0
  4  6  1  0  0  0  0
  7  6  2  0  0  0  0
  8  7  1  0  0  0  0
  8  9  1  0  0  0  0
 10  8  2  0  0  0  0
 10 11  1  0  0  0  0
 11 12  1  0  0  0  0
 12 13  2  0  0  0  0
 12 14  1  0  0  0  0
 14 15  1  0  0  0  0
 15 16  1  0  0  0  0
 16 17  1  0  0  0  0
 17 18  1  0  0  0  0
 18 19  1  0  0  0  0
 19 20  1  0  0  0  0
 20 21  1  0  0  0  0
 21 22  1  0  0  0  0
 22 23  1  0  0  0  0
 23 24  1  0  0  0  0
 24 25  1  0  0  0  0
 25 26  1  0  0  0  0
 26 27  1  0  0  0  0
 27 28  1  0  0  0  0
 28 29  1  0  0  0  0
 29 30  1  0  0  0  0
 31 10  1  0  0  0  0
 31 32  1  0  0  0  0
 33 31  2  0  0  0  0
  6 33  1  0  0  0  0
M  END
> <RowID>
518

> <Original_SMILES>
CCOC(=O)C1=CC(Cl)=C(OC(=O)OCCCCCCCCCCCCCCCC)C(Cl)=C1

> <Canonical_QSARr>
CCOC(=O)C1=CC(Cl)=C(OC(=O)OCCCCCCCCCCCCCCCC)C(Cl)=C1

> <InChI_Code_QSARr>
InChI=1S/C26H40Cl2O5/c1-3-5-6-7-8-9-10-11-12-13-14-15-16-17-18-32-26(30)33-24-22(27)19-21(20-23(24)28)25(29)31-4-2/h19-20H,3-18H2,1-2H3

> <InChI Key_QSARr>
DFMGMJBWBQNZNK-UHFFFAOYSA-N

> <Salt_Solvent>


> <Salt_Solvent_ID>
0

> <Number of connected components>
1

$$$$
Molecule_519
  Mrv2316 01072400032D          

 13 14  0  0  0  0            999 V2000
    3.9934   -1.0788    0.0000 O   0  0  0  0  0  0  0  0  0  0  0  0
    3.2789   -0.6663    0.0000 C   0  0  0  0  0  0  0  0  0  0  0  0
    3.2789    0.1587    0.0000 C   0  0  0  0  0  0  0  0  0  0  0  0
    3.9934    0.5712    0.0000 C   0  0  0  0  0  0  0  0  0  0  0  0
    3.9934    1.3962    0.0000 C   0  0  0  0  0  0  0  0  0  0  0  0
    3.2789    1.8087    0.0000 C   0  0  0  0  0  0  0  0  0  0  0  0
    2.5644    1.3962    0.0000 C   0  0  0  0  0  0  0  0  0  0  0  0
    1.7798    1.6511    0.0000 O   0  0  0  0  0  0  0  0  0  0  0  0
    1.2949    0.9837    0.0000 C   0  0  0  0  0  0  0  0  0  0  0  0
    0.6818    1.5357    0.0000 F   0  0  0  0  0  0  0  0  0  0  0  0
    0.6818    0.4316    0.0000 F   0  0  0  0  0  0  0  0  0  0  0  0
    1.7798    0.3162    0.0000 O   0  0  0  0  0  0  0  0  0  0  0  0
    2.5644    0.5712    0.0000 C   0  0  0  0  0  0  0  0  0  0  0  0
  1  2  2  0  0  0  0
  2  3  1  0  0  0  0
  4  3  1  0  0  0  0
  5  4  2  0  0  0  0
  6  5  1  0  0  0  0
  7  6  2  0  0  0  0
  7  8  1  0  0  0  0
  8  9  1  0  0  0  0
  9 10  1  0  0  0  0
  9 11  1  0  0  0  0
  9 12  1  0  0  0  0
 12 13  1  0  0  0  0
  3 13  2  0  0  0  0
 13  7  1  0  0  0  0
M  END
> <RowID>
519

> <Original_SMILES>
O=CC1C=CC=C2OC(F)(F)OC2=1

> <Canonical_QSARr>
O=CC1C=CC=C2OC(F)(F)OC2=1

> <InChI_Code_QSARr>
InChI=1S/C8H4F2O3/c9-8(10)12-6-3-1-2-5(4-11)7(6)13-8/h1-4H

> <InChI Key_QSARr>
NIBFJPXGNVPNHK-UHFFFAOYSA-N

> <Salt_Solvent>


> <Salt_Solvent_ID>
0

> <Number of connected components>
1

$$$$
Molecule_520
  Mrv2316 01072400032D          

  9  8  0  0  0  0            999 V2000
    1.7605    1.8414    0.0000 N   0  0  0  0  0  0  0  0  0  0  0  0
    2.4750    1.4289    0.0000 C   0  0  0  0  0  0  0  0  0  0  0  0
    2.4750    0.6039    0.0000 N   0  0  0  0  0  0  0  0  0  0  0  0
    3.1895    1.8414    0.0000 S   0  0  0  0  0  0  0  0  0  0  0  0
    3.9039    1.4289    0.0000 C   0  0  0  0  0  0  0  0  0  0  0  0
    4.6184    1.8414    0.0000 C   0  0  0  0  0  0  0  0  0  0  0  0
    5.3329    1.4289    0.0000 C   0  0  0  0  0  0  0  0  0  0  0  0
    6.0474    1.8414    0.0000 O   0  0  0  0  0  0  0  0  0  0  0  0
    5.3329    0.6039    0.0000 O   0  0  0  0  0  0  0  0  0  0  0  0
  1  2  1  0  0  0  0
  2  3  2  0  0  0  0
  2  4  1  0  0  0  0
  4  5  1  0  0  0  0
  5  6  1  0  0  0  0
  6  7  1  0  0  0  0
  7  8  1  0  0  0  0
  7  9  2  0  0  0  0
M  END
> <RowID>
520

> <Original_SMILES>
NC(=N)SCCC(O)=O

> <Canonical_QSARr>
NC(=N)SCCC(O)=O

> <InChI_Code_QSARr>
InChI=1S/C4H8N2O2S/c5-4(6)9-2-1-3(7)8/h1-2H2,(H3,5,6)(H,7,8)

> <InChI Key_QSARr>
ICCLGNPZARKJKF-UHFFFAOYSA-N

> <Salt_Solvent>


> <Salt_Solvent_ID>
0

> <Number of connected components>
1

$$$$
Molecule_521
  Mrv2316 01072400032D          

 19 18  0  0  0  0            999 V2000
    7.2336    5.0013    0.0000 C   0  0  0  0  0  0  0  0  0  0  0  0
    7.9481    5.4138    0.0000 C   0  0  0  0  0  0  0  0  0  0  0  0
    8.6625    5.0013    0.0000 C   0  0  0  0  0  0  0  0  0  0  0  0
    9.3770    5.4138    0.0000 C   0  0  0  0  0  0  0  0  0  0  0  0
   10.0915    5.0013    0.0000 C   0  0  0  0  0  0  0  0  0  0  0  0
   10.8060    5.4138    0.0000 C   0  0  0  0  0  0  0  0  0  0  0  0
   11.5204    5.0013    0.0000 C   0  0  0  0  0  0  0  0  0  0  0  0
   12.2349    5.4138    0.0000 C   0  0  0  0  0  0  0  0  0  0  0  0
   12.9494    5.0013    0.0000 C   0  0  0  0  0  0  0  0  0  0  0  0
   13.6638    5.4138    0.0000 C   0  0  0  0  0  0  0  0  0  0  0  0
   14.3783    5.0013    0.0000 C   0  0  0  0  0  0  0  0  0  0  0  0
   15.0928    5.4138    0.0000 C   0  0  0  0  0  0  0  0  0  0  0  0
   15.8073    5.0013    0.0000 C   0  0  0  0  0  0  0  0  0  0  0  0
   16.5217    5.4138    0.0000 C   0  0  0  0  0  0  0  0  0  0  0  0
   17.2362    5.0013    0.0000 O   0  0  0  0  0  0  0  0  0  0  0  0
   17.9507    5.4138    0.0000 C   0  0  0  0  0  0  0  0  0  0  0  0
   17.9507    6.2388    0.0000 O   0  0  0  0  0  0  0  0  0  0  0  0
   18.6651    5.0013    0.0000 C   0  0  0  0  0  0  0  0  0  0  0  0
   19.3796    5.4138    0.0000 C   0  0  0  0  0  0  0  0  0  0  0  0
  1  2  1  0  0  0  0
  2  3  1  0  0  0  0
  3  4  1  0  0  0  0
  4  5  1  0  0  0  0
  5  6  1  0  0  0  0
  6  7  1  0  0  0  0
  7  8  1  0  0  0  0
  8  9  1  0  0  0  0
  9 10  1  0  0  0  0
 10 11  1  0  0  0  0
 11 12  1  0  0  0  0
 12 13  1  0  0  0  0
 13 14  1  0  0  0  0
 14 15  1  0  0  0  0
 15 16  1  0  0  0  0
 16 17  2  0  0  0  0
 16 18  1  0  0  0  0
 18 19  2  0  0  0  0
M  END
> <RowID>
521

> <Original_SMILES>
CCCCCCCCCCCCCCOC(=O)C=C

> <Canonical_QSARr>
CCCCCCCCCCCCCCOC(=O)C=C

> <InChI_Code_QSARr>
InChI=1S/C17H32O2/c1-3-5-6-7-8-9-10-11-12-13-14-15-16-19-17(18)4-2/h4H,2-3,5-16H2,1H3

> <InChI Key_QSARr>
XZHNPVKXBNDGJD-UHFFFAOYSA-N

> <Salt_Solvent>


> <Salt_Solvent_ID>
0

> <Number of connected components>
1

$$$$
Molecule_522
  Mrv2316 01072400032D          

 12 12  0  0  0  0            999 V2000
    1.6671    3.3000    0.0000 C   0  0  0  0  0  0  0  0  0  0  0  0
    1.6671    2.4750    0.0000 C   0  0  0  0  0  0  0  0  0  0  0  0
    0.9526    2.0625    0.0000 N   0  0  0  0  0  0  0  0  0  0  0  0
    0.9526    1.2375    0.0000 C   0  0  0  0  0  0  0  0  0  0  0  0
    0.2381    0.8250    0.0000 C   0  0  0  0  0  0  0  0  0  0  0  0
    0.2381   -0.0000    0.0000 C   0  0  0  0  0  0  0  0  0  0  0  0
    0.9526   -0.4125    0.0000 C   0  0  0  0  0  0  0  0  0  0  0  0
    1.6671    0.0000    0.0000 C   0  0  0  0  0  0  0  0  0  0  0  0
    1.6671    0.8250    0.0000 C   0  0  0  0  0  0  0  0  0  0  0  0
    0.2381    2.4750    0.0000 C   0  0  0  0  0  0  0  0  0  0  0  0
   -0.4763    2.0625    0.0000 O   0  0  0  0  0  0  0  0  0  0  0  0
    0.2381    3.3000    0.0000 Cl  0  0  0  0  0  0  0  0  0  0  0  0
  1  2  1  0  0  0  0
  2  3  1  0  0  0  0
  3  4  1  0  0  0  0
  5  4  1  0  0  0  0
  6  5  1  0  0  0  0
  7  6  1  0  0  0  0
  8  7  1  0  0  0  0
  9  8  1  0  0  0  0
  4  9  1  0  0  0  0
  3 10  1  0  0  0  0
 10 11  2  0  0  0  0
 10 12  1  0  0  0  0
M  END
> <RowID>
522

> <Original_SMILES>
CCN(C1CCCCC1)C(=O)Cl

> <Canonical_QSARr>
CCN(C1CCCCC1)C(=O)Cl

> <InChI_Code_QSARr>
InChI=1S/C9H16ClNO/c1-2-11(9(10)12)8-6-4-3-5-7-8/h8H,2-7H2,1H3

> <InChI Key_QSARr>
ONKIPJDBUYZQMP-UHFFFAOYSA-N

> <Salt_Solvent>


> <Salt_Solvent_ID>
0

> <Number of connected components>
1

$$$$
Molecule_523
  Mrv2316 01072400032D          

 62 66  0  0  0  0            999 V2000
   -3.3879   -5.1895    0.0000 C   0  0  0  0  0  0  0  0  0  0  0  0
   -4.1024   -4.7770    0.0000 O   0  0  0  0  0  0  0  0  0  0  0  0
   -4.8169   -5.1895    0.0000 C   0  0  0  0  0  0  0  0  0  0  0  0
   -4.8169   -6.0145    0.0000 O   0  0  0  0  0  0  0  0  0  0  0  0
   -5.5313   -4.7770    0.0000 C   0  0  0  0  0  0  0  0  0  0  0  0
   -6.2458   -5.1895    0.0000 C   0  0  0  0  0  0  0  0  0  0  0  0
   -6.9603   -4.7770    0.0000 C   0  0  0  0  0  0  0  0  0  0  0  0
   -7.6747   -5.1895    0.0000 O   0  0  0  0  0  0  0  0  0  0  0  0
   -8.3892   -4.7770    0.0000 C   0  0  0  0  0  0  0  0  0  0  0  0
   -9.1037   -5.1895    0.0000 O   0  0  0  0  0  0  0  0  0  0  0  0
   -8.3892   -3.9520    0.0000 C   0  0  0  0  0  0  0  0  0  0  0  0
   -9.1037   -3.5395    0.0000 C   0  0  0  0  0  0  0  0  0  0  0  0
   -9.1037   -2.7145    0.0000 C   0  0  0  0  0  0  0  0  0  0  0  0
   -9.8182   -2.3020    0.0000 C   0  0  0  0  0  0  0  0  0  0  0  0
   -9.8182   -1.4770    0.0000 C   0  0  0  0  0  0  0  0  0  0  0  0
   -9.1037   -1.0645    0.0000 C   0  0  0  0  0  0  0  0  0  0  0  0
   -8.3892   -1.4770    0.0000 C   0  0  0  0  0  0  0  0  0  0  0  0
   -8.3892   -2.3020    0.0000 C   0  0  0  0  0  0  0  0  0  0  0  0
   -7.6747   -2.7145    0.0000 C   0  0  0  0  0  0  0  0  0  0  0  0
   -7.6747   -3.5395    0.0000 C   0  0  0  0  0  0  0  0  0  0  0  0
   -9.1037   -0.2395    0.0000 O   0  0  0  0  0  0  0  0  0  0  0  0
   -8.3892    0.1730    0.0000 C   0  0  0  0  0  0  0  0  0  0  0  0
   -7.6747   -0.2395    0.0000 O   0  0  0  0  0  0  0  0  0  0  0  0
   -8.3892    0.9980    0.0000 O   0  0  0  0  0  0  0  0  0  0  0  0
   -7.6747    1.4105    0.0000 C   0  0  0  0  0  0  0  0  0  0  0  0
   -7.6747    2.2355    0.0000 C   0  0  0  0  0  0  0  0  0  0  0  0
   -6.9603    2.6480    0.0000 C   0  0  0  0  0  0  0  0  0  0  0  0
   -6.9603    3.4730    0.0000 C   0  0  0  0  0  0  0  0  0  0  0  0
   -6.2458    3.8855    0.0000 O   0  0  0  0  0  0  0  0  0  0  0  0
   -6.2458    4.7105    0.0000 C   0  0  0  0  0  0  0  0  0  0  0  0
   -6.9603    5.1230    0.0000 O   0  0  0  0  0  0  0  0  0  0  0  0
   -5.5313    5.1230    0.0000 C   0  0  0  0  0  0  0  0  0  0  0  0
   -5.5313    5.9480    0.0000 C   0  0  0  0  0  0  0  0  0  0  0  0
   -6.9603   -3.9520    0.0000 C   0  0  0  0  0  0  0  0  0  0  0  0
   -6.2458   -3.5395    0.0000 C   0  0  0  0  0  0  0  0  0  0  0  0
   -5.5313   -3.9520    0.0000 C   0  0  0  0  0  0  0  0  0  0  0  0
   -4.8169   -3.5395    0.0000 O   0  0  0  0  0  0  0  0  0  0  0  0
   -4.8169   -2.7145    0.0000 C   0  0  0  0  0  0  0  0  0  0  0  0
   -5.5313   -2.3020    0.0000 O   0  0  0  0  0  0  0  0  0  0  0  0
   -4.1024   -2.3020    0.0000 C   0  0  0  0  0  0  0  0  0  0  0  0
   -4.1024   -1.4770    0.0000 C   0  0  0  0  0  0  0  0  0  0  0  0
   -3.3879   -1.0645    0.0000 C   0  0  0  0  0  0  0  0  0  0  0  0
   -3.3879   -0.2395    0.0000 C   0  0  0  0  0  0  0  0  0  0  0  0
   -2.6734    0.1730    0.0000 C   0  0  0  0  0  0  0  0  0  0  0  0
   -1.9590   -0.2395    0.0000 C   0  0  0  0  0  0  0  0  0  0  0  0
   -1.9590   -1.0645    0.0000 C   0  0  0  0  0  0  0  0  0  0  0  0
   -2.6734   -1.4770    0.0000 C   0  0  0  0  0  0  0  0  0  0  0  0
   -2.6734   -2.3020    0.0000 C   0  0  0  0  0  0  0  0  0  0  0  0
   -3.3879   -2.7145    0.0000 C   0  0  0  0  0  0  0  0  0  0  0  0
   -1.2445    0.1730    0.0000 O   0  0  0  0  0  0  0  0  0  0  0  0
   -0.5300   -0.2395    0.0000 C   0  0  0  0  0  0  0  0  0  0  0  0
   -0.5300   -1.0645    0.0000 O   0  0  0  0  0  0  0  0  0  0  0  0
    0.1844    0.1730    0.0000 O   0  0  0  0  0  0  0  0  0  0  0  0
    0.8989   -0.2395    0.0000 C   0  0  0  0  0  0  0  0  0  0  0  0
    1.6134    0.1730    0.0000 C   0  0  0  0  0  0  0  0  0  0  0  0
    2.3278   -0.2395    0.0000 C   0  0  0  0  0  0  0  0  0  0  0  0
    3.0423    0.1730    0.0000 C   0  0  0  0  0  0  0  0  0  0  0  0
    3.7568   -0.2395    0.0000 O   0  0  0  0  0  0  0  0  0  0  0  0
    4.4713    0.1730    0.0000 C   0  0  0  0  0  0  0  0  0  0  0  0
    4.4713    0.9980    0.0000 O   0  0  0  0  0  0  0  0  0  0  0  0
    5.1857   -0.2395    0.0000 C   0  0  0  0  0  0  0  0  0  0  0  0
    5.9002    0.1730    0.0000 C   0  0  0  0  0  0  0  0  0  0  0  0
  1  2  1  0  0  0  0
  2  3  1  0  0  0  0
  3  4  2  0  0  0  0
  3  5  1  0  0  0  0
  6  5  1  0  0  0  0
  7  6  2  0  0  0  0
  7  8  1  0  0  0  0
  8  9  1  0  0  0  0
  9 10  2  0  0  0  0
  9 11  1  0  0  0  0
 12 11  2  0  0  0  0
 13 12  1  0  0  0  0
 13 14  2  0  0  0  0
 14 15  1  0  0  0  0
 15 16  2  0  0  0  0
 16 17  1  0  0  0  0
 17 18  2  0  0  0  0
 18 13  1  0  0  0  0
 19 18  1  0  0  0  0
 20 19  2  0  0  0  0
 11 20  1  0  0  0  0
 16 21  1  0  0  0  0
 21 22  1  0  0  0  0
 22 23  2  0  0  0  0
 22 24  1  0  0  0  0
 24 25  1  0  0  0  0
 25 26  1  0  0  0  0
 26 27  1  0  0  0  0
 27 28  1  0  0  0  0
 28 29  1  0  0  0  0
 29 30  1  0  0  0  0
 30 31  2  0  0  0  0
 30 32  1  0  0  0  0
 32 33  2  0  0  0  0
 34  7  1  0  0  0  0
 35 34  2  0  0  0  0
 36 35  1  0  0  0  0
  5 36  2  0  0  0  0
 36 37  1  0  0  0  0
 37 38  1  0  0  0  0
 38 39  2  0  0  0  0
 38 40  1  0  0  0  0
 41 40  2  0  0  0  0
 42 41  1  0  0  0  0
 42 43  2  0  0  0  0
 43 44  1  0  0  0  0
 44 45  2  0  0  0  0
 45 46  1  0  0  0  0
 46 47  2  0  0  0  0
 47 42  1  0  0  0  0
 48 47  1  0  0  0  0
 49 48  2  0  0  0  0
 40 49  1  0  0  0  0
 45 50  1  0  0  0  0
 50 51  1  0  0  0  0
 51 52  2  0  0  0  0
 51 53  1  0  0  0  0
 53 54  1  0  0  0  0
 54 55  1  0  0  0  0
 55 56  1  0  0  0  0
 56 57  1  0  0  0  0
 57 58  1  0  0  0  0
 58 59  1  0  0  0  0
 59 60  2  0  0  0  0
 59 61  1  0  0  0  0
 61 62  2  0  0  0  0
M  END
> <RowID>
523

> <Original_SMILES>
COC(=O)C1C=C(C=CC=1OC(=O)C1=CC2=CC=C(C=C2C=C1)OC(=O)OCCCCOC(=O)C=C)OC(=O)C1=CC2=CC=C(C=C2C=C1)OC(=O)OCCCCOC(=O)C=C

> <Canonical_QSARr>
COC(=O)C1C=C(C=CC=1OC(=O)C1=CC2=CC=C(C=C2C=C1)OC(=O)OCCCCOC(=O)C=C)OC(=O)C1=CC2=CC=C(C=C2C=C1)OC(=O)OCCCCOC(=O)C=C

> <InChI_Code_QSARr>
InChI=1S/C46H40O16/c1-4-40(47)55-20-6-8-22-57-45(52)60-35-16-14-29-24-33(12-10-31(29)26-35)42(49)59-37-18-19-39(38(28-37)44(51)54-3)62-43(50)34-13-11-32-27-36(17-15-30(32)25-34)61-46(53)58-23-9-7-21-56-41(48)5-2/h4-5,10-19,24-28H,1-2,6-9,20-23H2,3H3

> <InChI Key_QSARr>
OTLUQGRIZUTBMU-UHFFFAOYSA-N

> <Salt_Solvent>


> <Salt_Solvent_ID>
0

> <Number of connected components>
1

$$$$
Molecule_524
  Mrv2316 01072400032D          

 26 26  0  0  0  0            999 V2000
   -3.8124   -5.0307    0.0000 C   0  0  0  0  0  0  0  0  0  0  0  0
   -4.4068   -4.4587    0.0000 C   0  0  0  0  0  0  0  0  0  0  0  0
   -4.2087   -3.6579    0.0000 C   0  0  0  0  0  0  0  0  0  0  0  0
   -4.8031   -3.0858    0.0000 C   0  0  0  0  0  0  0  0  0  0  0  0
   -4.6050   -2.2850    0.0000 N   0  0  0  0  0  0  0  0  0  0  0  0
   -3.8124   -2.0562    0.0000 C   0  0  0  0  0  0  0  0  0  0  0  0
   -3.2179   -2.6282    0.0000 O   0  0  0  0  0  0  0  0  0  0  0  0
   -3.6142   -1.2553    0.0000 C   0  0  0  0  0  0  0  0  0  0  0  0
   -4.2087   -0.6833    0.0000 C   0  0  0  0  0  0  0  0  0  0  0  0
   -4.0105    0.1176    0.0000 C   0  0  0  0  0  0  0  0  0  0  0  0
   -4.6050    0.6896    0.0000 C   0  0  0  0  0  0  0  0  0  0  0  0
   -4.4068    1.4905    0.0000 C   0  0  0  0  0  0  0  0  0  0  0  0
   -5.0013    2.0625    0.0000 C   0  0  0  0  0  0  0  0  0  0  0  0
   -4.8031    2.8633    0.0000 C   0  0  0  0  0  0  0  0  0  0  0  0
   -2.8216   -1.0265    0.0000 C   0  0  0  0  0  0  0  0  0  0  0  0
   -2.6234   -0.2256    0.0000 C   0  0  0  0  0  0  0  0  0  0  0  0
   -1.8308    0.0032    0.0000 C   0  0  0  0  0  0  0  0  0  0  0  0
   -1.6326    0.8040    0.0000 C   0  0  0  0  0  0  0  0  0  0  0  0
   -0.8400    1.0328    0.0000 C   0  0  0  0  0  0  0  0  0  0  0  0
   -0.6418    1.8337    0.0000 C   0  0  0  0  0  0  0  0  0  0  0  0
    0.1508    2.0625    0.0000 C   0  0  0  0  0  0  0  0  0  0  0  0
    0.3490    2.8633    0.0000 C   0  0  0  0  0  0  0  0  0  0  0  0
   -5.5958   -3.3146    0.0000 C   0  0  0  0  0  0  0  0  0  0  0  0
   -6.1903   -2.7426    0.0000 O   0  0  0  0  0  0  0  0  0  0  0  0
   -5.7939   -4.1155    0.0000 C   0  0  0  0  0  0  0  0  0  0  0  0
   -5.1995   -4.6875    0.0000 C   0  0  0  0  0  0  0  0  0  0  0  0
  1  2  1  0  0  0  0
  3  2  1  0  0  0  0
  4  3  2  0  0  0  0
  4  5  1  0  0  0  0
  5  6  1  0  0  0  0
  6  7  2  0  0  0  0
  6  8  1  0  0  0  0
  8  9  1  0  0  0  0
  9 10  1  0  0  0  0
 10 11  1  0  0  0  0
 11 12  1  0  0  0  0
 12 13  1  0  0  0  0
 13 14  1  0  0  0  0
  8 15  1  0  0  0  0
 15 16  1  0  0  0  0
 16 17  1  0  0  0  0
 17 18  1  0  0  0  0
 18 19  1  0  0  0  0
 19 20  1  0  0  0  0
 20 21  1  0  0  0  0
 21 22  1  0  0  0  0
 23  4  1  0  0  0  0
 23 24  1  0  0  0  0
 25 23  2  0  0  0  0
 26 25  1  0  0  0  0
  2 26  2  0  0  0  0
M  END
> <RowID>
524

> <Original_SMILES>
CC1C=C(NC(=O)C(CCCCCC)CCCCCCCC)C(O)=CC=1

> <Canonical_QSARr>
CC1C=C(NC(=O)C(CCCCCC)CCCCCCCC)C(O)=CC=1

> <InChI_Code_QSARr>
InChI=1S/C23H39NO2/c1-4-6-8-10-11-13-15-20(14-12-9-7-5-2)23(26)24-21-18-19(3)16-17-22(21)25/h16-18,20,25H,4-15H2,1-3H3,(H,24,26)

> <InChI Key_QSARr>
OCUYZSSPVXWNDH-UHFFFAOYSA-N

> <Salt_Solvent>


> <Salt_Solvent_ID>
0

> <Number of connected components>
1

$$$$
Molecule_525
  Mrv2316 01072400032D          

 26 27  0  0  0  0            999 V2000
   -5.7158   -8.6942    0.0000 C   0  0  0  0  0  0  0  0  0  0  0  0
   -5.0013   -9.1067    0.0000 C   0  0  0  0  0  0  0  0  0  0  0  0
   -5.0013   -9.9317    0.0000 C   0  0  0  0  0  0  0  0  0  0  0  0
   -4.2868   -8.6942    0.0000 C   0  0  0  0  0  0  0  0  0  0  0  0
   -4.2868   -7.8692    0.0000 O   0  0  0  0  0  0  0  0  0  0  0  0
   -3.5724   -9.1067    0.0000 O   0  0  0  0  0  0  0  0  0  0  0  0
   -2.8579   -8.6942    0.0000 C   0  0  0  0  0  0  0  0  0  0  0  0
   -2.1434   -9.1067    0.0000 C   0  0  0  0  0  0  0  0  0  0  0  0
   -1.4289   -8.6942    0.0000 O   0  0  0  0  0  0  0  0  0  0  0  0
   -0.7145   -9.1067    0.0000 C   0  0  0  0  0  0  0  0  0  0  0  0
    0.0000   -8.6942    0.0000 C   0  0  0  0  0  0  0  0  0  0  0  0
    0.7145   -9.1067    0.0000 O   0  0  0  0  0  0  0  0  0  0  0  0
    1.4289   -8.6942    0.0000 C   0  0  0  0  0  0  0  0  0  0  0  0
    2.1434   -9.1067    0.0000 C   0  0  0  0  0  0  0  0  0  0  0  0
    2.8579   -8.6942    0.0000 C   0  0  0  0  0  0  0  0  0  0  0  0
    2.8579   -7.8692    0.0000 C   0  0  0  0  0  0  0  0  0  0  0  0
    3.5724   -7.4567    0.0000 C   0  0  0  0  0  0  0  0  0  0  0  0
    3.5724   -6.6317    0.0000 O   0  0  0  0  0  0  0  0  0  0  0  0
    4.2868   -7.8692    0.0000 C   0  0  0  0  0  0  0  0  0  0  0  0
    4.2868   -8.6942    0.0000 C   0  0  0  0  0  0  0  0  0  0  0  0
    5.0013   -9.1067    0.0000 C   0  0  0  0  0  0  0  0  0  0  0  0
    5.7158   -8.6942    0.0000 C   0  0  0  0  0  0  0  0  0  0  0  0
    5.7158   -7.8692    0.0000 C   0  0  0  0  0  0  0  0  0  0  0  0
    5.0013   -7.4567    0.0000 C   0  0  0  0  0  0  0  0  0  0  0  0
    2.1434   -7.4567    0.0000 C   0  0  0  0  0  0  0  0  0  0  0  0
    1.4289   -7.8692    0.0000 C   0  0  0  0  0  0  0  0  0  0  0  0
  1  2  1  0  0  0  0
  2  3  2  0  0  0  0
  2  4  1  0  0  0  0
  4  5  2  0  0  0  0
  4  6  1  0  0  0  0
  6  7  1  0  0  0  0
  7  8  1  0  0  0  0
  8  9  1  0  0  0  0
  9 10  1  0  0  0  0
 10 11  1  0  0  0  0
 11 12  1  0  0  0  0
 12 13  1  0  0  0  0
 14 13  1  0  0  0  0
 15 14  2  0  0  0  0
 16 15  1  0  0  0  0
 16 17  1  0  0  0  0
 17 18  2  0  0  0  0
 17 19  1  0  0  0  0
 20 19  1  0  0  0  0
 21 20  2  0  0  0  0
 22 21  1  0  0  0  0
 23 22  2  0  0  0  0
 24 23  1  0  0  0  0
 19 24  2  0  0  0  0
 25 16  2  0  0  0  0
 26 25  1  0  0  0  0
 13 26  2  0  0  0  0
M  END
> <RowID>
525

> <Original_SMILES>
CC(=C)C(=O)OCCOCCOC1C=CC(=CC=1)C(=O)C1C=CC=CC=1

> <Canonical_QSARr>
CC(=C)C(=O)OCCOCCOC1C=CC(=CC=1)C(=O)C1C=CC=CC=1

> <InChI_Code_QSARr>
InChI=1S/C21H22O5/c1-16(2)21(23)26-15-13-24-12-14-25-19-10-8-18(9-11-19)20(22)17-6-4-3-5-7-17/h3-11H,1,12-15H2,2H3

> <InChI Key_QSARr>
FNAMGIUYFNNCNP-UHFFFAOYSA-N

> <Salt_Solvent>


> <Salt_Solvent_ID>
0

> <Number of connected components>
1

$$$$
Molecule_526
  Mrv2316 01072400032D          

 20 21  0  0  0  0            999 V2000
    5.8234    0.2277    0.0000 C   0  0  0  0  0  0  0  0  0  0  0  0
    5.1089    0.6402    0.0000 C   0  0  0  0  0  0  0  0  0  0  0  0
    5.5214    1.3547    0.0000 C   0  0  0  0  0  0  0  0  0  0  0  0
    4.6964   -0.0743    0.0000 C   0  0  0  0  0  0  0  0  0  0  0  0
    4.3945    1.0527    0.0000 C   0  0  0  0  0  0  0  0  0  0  0  0
    4.3945    1.8777    0.0000 O   0  0  0  0  0  0  0  0  0  0  0  0
    3.6800    0.6402    0.0000 C   0  0  0  0  0  0  0  0  0  0  0  0
    2.9655    1.0527    0.0000 O   0  0  0  0  0  0  0  0  0  0  0  0
    2.2510    0.6402    0.0000 C   0  0  0  0  0  0  0  0  0  0  0  0
    1.5366    1.0527    0.0000 C   0  0  0  0  0  0  0  0  0  0  0  0
    0.8221    0.6402    0.0000 C   0  0  0  0  0  0  0  0  0  0  0  0
    0.8221   -0.1848    0.0000 C   0  0  0  0  0  0  0  0  0  0  0  0
    0.1076   -0.5973    0.0000 Cl  0  0  0  0  0  0  0  0  0  0  0  0
    1.5366   -0.5973    0.0000 C   0  0  0  0  0  0  0  0  0  0  0  0
    2.2510   -0.1848    0.0000 C   0  0  0  0  0  0  0  0  0  0  0  0
    3.6800   -0.1848    0.0000 N   0  0  0  0  0  0  0  0  0  0  0  0
    3.0125   -0.6697    0.0000 C   0  0  0  0  0  0  0  0  0  0  0  0
    3.2675   -1.4543    0.0000 N   0  0  0  0  0  0  0  0  0  0  0  0
    4.0925   -1.4543    0.0000 C   0  0  0  0  0  0  0  0  0  0  0  0
    4.3474   -0.6697    0.0000 C   0  0  0  0  0  0  0  0  0  0  0  0
  1  2  1  0  0  0  0
  2  3  1  0  0  0  0
  2  4  1  0  0  0  0
  2  5  1  0  0  0  0
  5  6  2  0  0  0  0
  5  7  1  0  0  0  0
  7  8  1  0  0  0  0
  8  9  1  0  0  0  0
 10  9  1  0  0  0  0
 11 10  2  0  0  0  0
 12 11  1  0  0  0  0
 12 13  1  0  0  0  0
 14 12  2  0  0  0  0
 15 14  1  0  0  0  0
  9 15  2  0  0  0  0
  7 16  1  0  0  0  0
 17 16  1  0  0  0  0
 18 17  2  0  0  0  0
 19 18  1  0  0  0  0
 20 19  2  0  0  0  0
 16 20  1  0  0  0  0
M  END
> <RowID>
526

> <Original_SMILES>
CC(C)(C)C(=O)C(OC1C=CC(Cl)=CC=1)N1C=NC=C1

> <Canonical_QSARr>
CC(C)(C)C(=O)C(OC1C=CC(Cl)=CC=1)N1C=NC=C1

> <InChI_Code_QSARr>
InChI=1S/C15H17ClN2O2/c1-15(2,3)13(19)14(18-9-8-17-10-18)20-12-6-4-11(16)5-7-12/h4-10,14H,1-3H3

> <InChI Key_QSARr>
OWEGWHBOCFMBLP-UHFFFAOYSA-N

> <Salt_Solvent>


> <Salt_Solvent_ID>
0

> <Number of connected components>
1

$$$$
Molecule_527
  Mrv2316 01072400032D          

 20 19  0  0  0  0            999 V2000
    5.0627    1.0005    0.0000 O   0  0  0  0  0  0  0  0  0  0  0  0
    5.8729    1.1564    0.0000 C   0  0  0  0  0  0  0  0  0  0  0  0
    6.4129    0.5328    0.0000 C   0  0  0  0  0  0  0  0  0  0  0  0
    6.1429   -0.2467    0.0000 N   0  0  0  0  0  0  0  0  0  0  0  0
    5.3328   -0.4027    0.0000 C   0  0  0  0  0  0  0  0  0  0  0  0
    5.0627   -1.1822    0.0000 C   0  0  0  0  0  0  0  0  0  0  0  0
    4.2526   -1.3381    0.0000 N   0  0  0  0  0  0  0  0  0  0  0  0
    3.9825   -2.1177    0.0000 C   0  0  0  0  0  0  0  0  0  0  0  0
    4.5226   -2.7413    0.0000 C   0  0  0  0  0  0  0  0  0  0  0  0
    5.3328   -2.5854    0.0000 O   0  0  0  0  0  0  0  0  0  0  0  0
    4.2526   -3.5209    0.0000 O   0  0  0  0  0  0  0  0  0  0  0  0
    3.7125   -0.7145    0.0000 C   0  0  0  0  0  0  0  0  0  0  0  0
    2.9024   -0.8704    0.0000 C   0  0  0  0  0  0  0  0  0  0  0  0
    2.3623   -0.2467    0.0000 O   0  0  0  0  0  0  0  0  0  0  0  0
    2.6323   -1.6499    0.0000 O   0  0  0  0  0  0  0  0  0  0  0  0
    6.6830   -0.8704    0.0000 C   0  0  0  0  0  0  0  0  0  0  0  0
    7.4931   -0.7145    0.0000 C   0  0  0  0  0  0  0  0  0  0  0  0
    7.7632    0.0651    0.0000 O   0  0  0  0  0  0  0  0  0  0  0  0
    8.0332   -1.3381    0.0000 O   0  0  0  0  0  0  0  0  0  0  0  0
    6.1429    1.9360    0.0000 O   0  0  0  0  0  0  0  0  0  0  0  0
  1  2  1  0  0  0  0
  2  3  1  0  0  0  0
  3  4  1  0  0  0  0
  4  5  1  0  0  0  0
  5  6  1  0  0  0  0
  6  7  1  0  0  0  0
  7  8  1  0  0  0  0
  8  9  1  0  0  0  0
  9 10  2  0  0  0  0
  9 11  1  0  0  0  0
  7 12  1  0  0  0  0
 12 13  1  0  0  0  0
 13 14  2  0  0  0  0
 13 15  1  0  0  0  0
  4 16  1  0  0  0  0
 16 17  1  0  0  0  0
 17 18  2  0  0  0  0
 17 19  1  0  0  0  0
  2 20  2  0  0  0  0
M  END
> <RowID>
527

> <Original_SMILES>
[NH4+].[NH4+].[Mn-2].OC(=O)CN(CC(O)=O)CCN(CC(O)=O)CC(O)=O

> <Canonical_QSARr>
OC(=O)CN(CC(O)=O)CCN(CC(O)=O)CC(O)=O

> <InChI_Code_QSARr>
InChI=1S/C10H16N2O8/c13-7(14)3-11(4-8(15)16)1-2-12(5-9(17)18)6-10(19)20/h1-6H2,(H,13,14)(H,15,16)(H,17,18)(H,19,20)

> <InChI Key_QSARr>
KCXVZYZYPLLWCC-UHFFFAOYSA-N

> <Salt_Solvent>
[NH4+].[Mn-2]

> <Salt_Solvent_ID>
160

> <Number of connected components>
4

$$$$
Molecule_528
  Mrv2316 01072400032D          

 12 11  0  0  0  0            999 V2000
   -2.3349    0.3020    0.0000 C   0  0  0  0  0  0  0  0  0  0  0  0
   -1.6204    0.7145    0.0000 N   0  3  0  0  0  0  0  0  0  0  0  0
   -0.9059    1.1270    0.0000 C   0  0  0  0  0  0  0  0  0  0  0  0
   -0.1914    0.7145    0.0000 C   0  0  0  0  0  0  0  0  0  0  0  0
    0.5230    1.1270    0.0000 C   0  0  0  0  0  0  0  0  0  0  0  0
    1.2375    0.7145    0.0000 N   0  0  0  0  0  0  0  0  0  0  0  0
    1.9520    1.1270    0.0000 C   0  0  0  0  0  0  0  0  0  0  0  0
    2.6664    0.7145    0.0000 C   0  0  0  0  0  0  0  0  0  0  0  0
    3.3809    1.1270    0.0000 C   0  0  0  0  0  0  0  0  0  0  0  0
    1.9520    1.9520    0.0000 O   0  0  0  0  0  0  0  0  0  0  0  0
   -1.2079    0.0000    0.0000 C   0  0  0  0  0  0  0  0  0  0  0  0
   -2.0329    1.4290    0.0000 C   0  0  0  0  0  0  0  0  0  0  0  0
  1  2  1  0  0  0  0
  2  3  1  0  0  0  0
  3  4  1  0  0  0  0
  4  5  1  0  0  0  0
  5  6  1  0  0  0  0
  6  7  1  0  0  0  0
  7  8  1  0  0  0  0
  8  9  2  0  0  0  0
  7 10  2  0  0  0  0
  2 11  1  0  0  0  0
  2 12  1  0  0  0  0
M  CHG  1   2   1
M  END
> <RowID>
528

> <Original_SMILES>
[Cl-].C[N+](C)(C)CCCNC(=O)C=C

> <Canonical_QSARr>
C[N+](C)(C)CCCNC(=O)C=C

> <InChI_Code_QSARr>
InChI=1S/C9H18N2O/c1-5-9(12)10-7-6-8-11(2,3)4/h5H,1,6-8H2,2-4H3/p+1

> <InChI Key_QSARr>
RUACIFFMSHZUKZ-UHFFFAOYSA-O

> <Salt_Solvent>
[Cl-]

> <Salt_Solvent_ID>
170

> <Number of connected components>
2

$$$$
Molecule_529
  Mrv2316 01072400032D          

 25 27  0  0  0  0            999 V2000
   -2.6366    0.9960    0.0000 C   0  0  0  0  0  0  0  0  0  0  0  0
   -2.2241    0.2815    0.0000 C   0  0  0  0  0  0  0  0  0  0  0  0
   -1.3991    0.2815    0.0000 C   0  0  0  0  0  0  0  0  0  0  0  0
   -0.9866   -0.4330    0.0000 C   0  0  0  0  0  0  0  0  0  0  0  0
   -0.1616   -0.4330    0.0000 C   0  0  0  0  0  0  0  0  0  0  0  0
    0.3233    0.2345    0.0000 O   0  0  0  0  0  0  0  0  0  0  0  0
    1.1079   -0.0205    0.0000 C   0  0  0  0  0  0  0  0  0  0  0  0
    1.8224    0.3920    0.0000 C   0  0  0  0  0  0  0  0  0  0  0  0
    2.5369   -0.0205    0.0000 C   0  0  0  0  0  0  0  0  0  0  0  0
    2.5369   -0.8455    0.0000 C   0  0  0  0  0  0  0  0  0  0  0  0
    1.8224   -1.2580    0.0000 C   0  0  0  0  0  0  0  0  0  0  0  0
    1.1079   -0.8455    0.0000 C   0  0  0  0  0  0  0  0  0  0  0  0
    0.3233   -1.1004    0.0000 C   0  0  0  0  0  0  0  0  0  0  0  0
    0.0684   -1.8850    0.0000 C   0  0  0  0  0  0  0  0  0  0  0  0
   -0.7386   -2.0566    0.0000 O   0  0  0  0  0  0  0  0  0  0  0  0
    0.6204   -2.4981    0.0000 C   0  0  0  0  0  0  0  0  0  0  0  0
    0.3655   -3.2828    0.0000 C   0  0  0  0  0  0  0  0  0  0  0  0
    0.9175   -3.8959    0.0000 C   0  0  0  0  0  0  0  0  0  0  0  0
    1.7245   -3.7243    0.0000 C   0  0  0  0  0  0  0  0  0  0  0  0
    2.2765   -4.3374    0.0000 O   0  0  0  0  0  0  0  0  0  0  0  0
    1.9794   -2.9397    0.0000 C   0  0  0  0  0  0  0  0  0  0  0  0
    1.4274   -2.3266    0.0000 C   0  0  0  0  0  0  0  0  0  0  0  0
    3.2514   -1.2580    0.0000 N   0  3  0  0  0  0  0  0  0  0  0  0
    3.2514   -2.0830    0.0000 O   0  5  0  0  0  0  0  0  0  0  0  0
    3.9658   -0.8455    0.0000 O   0  0  0  0  0  0  0  0  0  0  0  0
  1  2  1  0  0  0  0
  2  3  1  0  0  0  0
  3  4  1  0  0  0  0
  4  5  1  0  0  0  0
  6  5  1  0  0  0  0
  7  6  1  0  0  0  0
  7  8  1  0  0  0  0
  8  9  2  0  0  0  0
  9 10  1  0  0  0  0
 10 11  2  0  0  0  0
 11 12  1  0  0  0  0
 12  7  2  0  0  0  0
 13 12  1  0  0  0  0
  5 13  2  0  0  0  0
 13 14  1  0  0  0  0
 14 15  2  0  0  0  0
 14 16  1  0  0  0  0
 17 16  1  0  0  0  0
 18 17  2  0  0  0  0
 19 18  1  0  0  0  0
 19 20  1  0  0  0  0
 21 19  2  0  0  0  0
 22 21  1  0  0  0  0
 16 22  2  0  0  0  0
 10 23  1  0  0  0  0
 23 24  1  0  0  0  0
 23 25  2  0  0  0  0
M  CHG  2  23   1  24  -1
M  END
> <RowID>
529

> <Original_SMILES>
CCCCC1OC2C=CC(=CC=2C=1C(=O)C1C=CC(O)=CC=1)[N+]([O-])=O

> <Canonical_QSARr>
CCCCC1OC2C=CC(=CC=2C=1C(=O)C1C=CC(O)=CC=1)[N+]([O-])=O

> <InChI_Code_QSARr>
InChI=1S/C19H17NO5/c1-2-3-4-17-18(19(22)12-5-8-14(21)9-6-12)15-11-13(20(23)24)7-10-16(15)25-17/h5-11,21H,2-4H2,1H3

> <InChI Key_QSARr>
ZJZKLBXEGZKOBW-UHFFFAOYSA-N

> <Salt_Solvent>


> <Salt_Solvent_ID>
0

> <Number of connected components>
1

$$$$
Molecule_530
  Mrv2316 01072400032D          

 32 34  0  0  0  0            999 V2000
   -1.3519   -8.1434    0.0000 O   0  5  0  0  0  0  0  0  0  0  0  0
   -0.6374   -7.7309    0.0000 N   0  3  0  0  0  0  0  0  0  0  0  0
    0.0770   -8.1434    0.0000 O   0  0  0  0  0  0  0  0  0  0  0  0
   -0.6374   -6.9059    0.0000 C   0  0  0  0  0  0  0  0  0  0  0  0
    0.0770   -6.4934    0.0000 C   0  0  0  0  0  0  0  0  0  0  0  0
    0.0770   -5.6684    0.0000 C   0  0  0  0  0  0  0  0  0  0  0  0
   -0.6374   -5.2559    0.0000 C   0  0  0  0  0  0  0  0  0  0  0  0
   -0.6374   -4.4309    0.0000 O   0  0  0  0  0  0  0  0  0  0  0  0
    0.0770   -4.0184    0.0000 P   0  0  0  0  0  0  0  0  0  0  0  0
    0.4895   -4.7328    0.0000 S   0  0  0  0  0  0  0  0  0  0  0  0
    0.7915   -3.6059    0.0000 O   0  0  0  0  0  0  0  0  0  0  0  0
    1.5060   -4.0184    0.0000 C   0  0  0  0  0  0  0  0  0  0  0  0
    1.5060   -4.8434    0.0000 C   0  0  0  0  0  0  0  0  0  0  0  0
    2.2204   -5.2559    0.0000 C   0  0  0  0  0  0  0  0  0  0  0  0
    2.9349   -4.8434    0.0000 C   0  0  0  0  0  0  0  0  0  0  0  0
    3.6494   -5.2559    0.0000 N   0  3  0  0  0  0  0  0  0  0  0  0
    4.3639   -4.8434    0.0000 O   0  5  0  0  0  0  0  0  0  0  0  0
    3.6494   -6.0809    0.0000 O   0  0  0  0  0  0  0  0  0  0  0  0
    2.9349   -4.0184    0.0000 C   0  0  0  0  0  0  0  0  0  0  0  0
    2.2204   -3.6059    0.0000 C   0  0  0  0  0  0  0  0  0  0  0  0
   -0.3355   -3.3039    0.0000 O   0  0  0  0  0  0  0  0  0  0  0  0
    0.0770   -2.5894    0.0000 C   0  0  0  0  0  0  0  0  0  0  0  0
    0.9020   -2.5894    0.0000 C   0  0  0  0  0  0  0  0  0  0  0  0
    1.3145   -1.8749    0.0000 C   0  0  0  0  0  0  0  0  0  0  0  0
    0.9020   -1.1605    0.0000 C   0  0  0  0  0  0  0  0  0  0  0  0
    1.3145   -0.4460    0.0000 N   0  3  0  0  0  0  0  0  0  0  0  0
    0.9020    0.2685    0.0000 O   0  5  0  0  0  0  0  0  0  0  0  0
    2.1395   -0.4460    0.0000 O   0  0  0  0  0  0  0  0  0  0  0  0
    0.0770   -1.1605    0.0000 C   0  0  0  0  0  0  0  0  0  0  0  0
   -0.3355   -1.8749    0.0000 C   0  0  0  0  0  0  0  0  0  0  0  0
   -1.3519   -5.6684    0.0000 C   0  0  0  0  0  0  0  0  0  0  0  0
   -1.3519   -6.4934    0.0000 C   0  0  0  0  0  0  0  0  0  0  0  0
  1  2  1  0  0  0  0
  2  3  2  0  0  0  0
  2  4  1  0  0  0  0
  5  4  1  0  0  0  0
  6  5  2  0  0  0  0
  7  6  1  0  0  0  0
  7  8  1  0  0  0  0
  8  9  1  0  0  0  0
  9 10  2  0  0  0  0
  9 11  1  0  0  0  0
 11 12  1  0  0  0  0
 13 12  1  0  0  0  0
 14 13  2  0  0  0  0
 15 14  1  0  0  0  0
 15 16  1  0  0  0  0
 16 17  1  0  0  0  0
 16 18  2  0  0  0  0
 19 15  2  0  0  0  0
 20 19  1  0  0  0  0
 12 20  2  0  0  0  0
  9 21  1  0  0  0  0
 21 22  1  0  0  0  0
 23 22  1  0  0  0  0
 24 23  2  0  0  0  0
 25 24  1  0  0  0  0
 25 26  1  0  0  0  0
 26 27  1  0  0  0  0
 26 28  2  0  0  0  0
 29 25  2  0  0  0  0
 30 29  1  0  0  0  0
 22 30  2  0  0  0  0
 31  7  2  0  0  0  0
 32 31  1  0  0  0  0
  4 32  2  0  0  0  0
M  CHG  6   1  -1   2   1  16   1  17  -1  26   1  27  -1
M  END
> <RowID>
530

> <Original_SMILES>
[O-][N+](=O)C1C=CC(=CC=1)OP(=S)(OC1C=CC(=CC=1)[N+]([O-])=O)OC1C=CC(=CC=1)[N+]([O-])=O

> <Canonical_QSARr>
[O-][N+](=O)C1C=CC(=CC=1)OP(=S)(OC1C=CC(=CC=1)[N+]([O-])=O)OC1C=CC(=CC=1)[N+]([O-])=O

> <InChI_Code_QSARr>
InChI=1S/C18H12N3O9PS/c22-19(23)13-1-7-16(8-2-13)28-31(32,29-17-9-3-14(4-10-17)20(24)25)30-18-11-5-15(6-12-18)21(26)27/h1-12H

> <InChI Key_QSARr>
DMRUHNJUTAJPSU-UHFFFAOYSA-N

> <Salt_Solvent>


> <Salt_Solvent_ID>
0

> <Number of connected components>
1

$$$$
Molecule_531
  Mrv2316 01072400032D          

 15 16  0  0  0  0            999 V2000
    2.2428   -2.5915    0.0000 N   0  0  0  0  0  0  0  0  0  0  0  0
    1.4358   -2.7631    0.0000 C   0  0  0  0  0  0  0  0  0  0  0  0
    0.8838   -2.1500    0.0000 C   0  0  0  0  0  0  0  0  0  0  0  0
    1.1387   -1.3654    0.0000 C   0  0  0  0  0  0  0  0  0  0  0  0
    0.6538   -0.6979    0.0000 C   0  0  0  0  0  0  0  0  0  0  0  0
    1.1387   -0.0305    0.0000 N   0  0  0  0  0  0  0  0  0  0  0  0
    1.9233   -0.2854    0.0000 C   0  0  0  0  0  0  0  0  0  0  0  0
    2.6378    0.1271    0.0000 C   0  0  0  0  0  0  0  0  0  0  0  0
    3.3523   -0.2854    0.0000 C   0  0  0  0  0  0  0  0  0  0  0  0
    3.3523   -1.1104    0.0000 C   0  0  0  0  0  0  0  0  0  0  0  0
    2.6378   -1.5229    0.0000 C   0  0  0  0  0  0  0  0  0  0  0  0
    1.9233   -1.1104    0.0000 C   0  0  0  0  0  0  0  0  0  0  0  0
    1.1809   -3.5477    0.0000 C   0  0  0  0  0  0  0  0  0  0  0  0
    1.7329   -4.1608    0.0000 O   0  0  0  0  0  0  0  0  0  0  0  0
    0.3739   -3.7192    0.0000 O   0  0  0  0  0  0  0  0  0  0  0  0
  1  2  1  0  0  0  0
  2  3  1  0  0  0  0
  3  4  1  0  0  0  0
  5  4  2  0  0  0  0
  6  5  1  0  0  0  0
  7  6  1  0  0  0  0
  7  8  2  0  0  0  0
  8  9  1  0  0  0  0
  9 10  2  0  0  0  0
 10 11  1  0  0  0  0
 11 12  2  0  0  0  0
  4 12  1  0  0  0  0
 12  7  1  0  0  0  0
  2 13  1  0  0  0  0
 13 14  1  0  0  0  0
 13 15  2  0  0  0  0
M  END
> <RowID>
531

> <Original_SMILES>
NC(CC1=CNC2=CC=CC=C21)C(O)=O

> <Canonical_QSARr>
NC(CC1=CNC2=CC=CC=C21)C(O)=O

> <InChI_Code_QSARr>
InChI=1S/C11H12N2O2/c12-9(11(14)15)5-7-6-13-10-4-2-1-3-8(7)10/h1-4,6,9,13H,5,12H2,(H,14,15)

> <InChI Key_QSARr>
QIVBCDIJIAJPQS-UHFFFAOYSA-N

> <Salt_Solvent>


> <Salt_Solvent_ID>
0

> <Number of connected components>
1

$$$$
Molecule_532
  Mrv2316 01072400032D          

 21 24  0  0  0  0            999 V2000
    4.5466   -0.5086    0.0000 C   0  0  0  0  0  0  0  0  0  0  0  0
    4.8269    0.2673    0.0000 C   0  0  0  0  0  0  0  0  0  0  0  0
    5.3587   -0.3634    0.0000 C   0  0  0  0  0  0  0  0  0  0  0  0
    6.1708   -0.2182    0.0000 C   0  0  0  0  0  0  0  0  0  0  0  0
    6.4511    0.5577    0.0000 C   0  0  0  0  0  0  0  0  0  0  0  0
    7.2633    0.7029    0.0000 O   0  0  0  0  0  0  0  0  0  0  0  0
    5.9193    1.1884    0.0000 N   0  0  0  0  0  0  0  0  0  0  0  0
    5.1072    1.0432    0.0000 C   0  0  0  0  0  0  0  0  0  0  0  0
    4.5754    1.6739    0.0000 C   0  0  0  0  0  0  0  0  0  0  0  0
    3.7633    1.5287    0.0000 C   0  0  0  0  0  0  0  0  0  0  0  0
    3.4830    0.7528    0.0000 C   0  0  0  0  0  0  0  0  0  0  0  0
    4.0148    0.1221    0.0000 C   0  0  0  0  0  0  0  0  0  0  0  0
    3.7345   -0.6539    0.0000 C   0  0  0  0  0  0  0  0  0  0  0  0
    2.9224   -0.7991    0.0000 C   0  0  0  0  0  0  0  0  0  0  0  0
    2.3905   -0.1684    0.0000 C   0  0  0  0  0  0  0  0  0  0  0  0
    2.0307   -0.9107    0.0000 C   0  0  0  0  0  0  0  0  0  0  0  0
    2.6708    0.6076    0.0000 C   0  0  0  0  0  0  0  0  0  0  0  0
    2.0195    1.1139    0.0000 C   0  0  0  0  0  0  0  0  0  0  0  0
    1.3367    0.6509    0.0000 C   0  0  0  0  0  0  0  0  0  0  0  0
    1.5660   -0.1416    0.0000 C   0  0  0  0  0  0  0  0  0  0  0  0
    1.0596   -0.7929    0.0000 O   0  0  0  0  0  0  0  0  0  0  0  0
  1  2  1  0  0  0  0
  3  2  1  0  0  0  0
  4  3  1  0  0  0  0
  5  4  1  0  0  0  0
  5  6  2  0  0  0  0
  7  5  1  0  0  0  0
  8  7  1  0  0  0  0
  8  2  1  0  0  0  0
  9  8  1  0  0  0  0
 10  9  1  0  0  0  0
 11 10  1  0  0  0  0
 11 12  1  0  0  0  0
  2 12  1  0  0  0  0
 12 13  1  0  0  0  0
 13 14  1  0  0  0  0
 14 15  1  0  0  0  0
 15 16  1  0  0  0  0
 17 15  1  0  0  0  0
 17 11  1  0  0  0  0
 18 17  1  0  0  0  0
 19 18  1  0  0  0  0
 20 19  1  0  0  0  0
 15 20  1  0  0  0  0
 20 21  2  0  0  0  0
M  END
> <RowID>
532

> <Original_SMILES>
CC12CCC(=O)NC1CCC1C2CCC2(C)C1CCC2=O

> <Canonical_QSARr>
CC12CCC(=O)NC1CCC1C2CCC2(C)C1CCC2=O

> <InChI_Code_QSARr>
InChI=1S/C18H27NO2/c1-17-10-8-16(21)19-14(17)5-3-11-12-4-6-15(20)18(12,2)9-7-13(11)17/h11-14H,3-10H2,1-2H3,(H,19,21)

> <InChI Key_QSARr>
KMGNQIWYDLGYQZ-UHFFFAOYSA-N

> <Salt_Solvent>


> <Salt_Solvent_ID>
0

> <Number of connected components>
1

$$$$
Molecule_533
  Mrv2316 01072400032D          

  8  7  0  0  0  0            999 V2000
    1.2375    2.1434    0.0000 C   0  0  0  0  0  0  0  0  0  0  0  0
    0.8250    1.4289    0.0000 C   0  0  0  0  0  0  0  0  0  0  0  0
   -0.0000    1.4289    0.0000 O   0  0  0  0  0  0  0  0  0  0  0  0
    1.2375    0.7145    0.0000 C   0  0  0  0  0  0  0  0  0  0  0  0
    2.0625    0.7145    0.0000 O   0  0  0  0  0  0  0  0  0  0  0  0
    0.8250   -0.0000    0.0000 N   0  0  0  0  0  0  0  0  0  0  0  0
    1.2375   -0.7145    0.0000 C   0  0  0  0  0  0  0  0  0  0  0  0
    0.0000   -0.0000    0.0000 C   0  0  0  0  0  0  0  0  0  0  0  0
  1  2  1  0  0  0  0
  2  3  1  0  0  0  0
  2  4  1  0  0  0  0
  4  5  2  0  0  0  0
  4  6  1  0  0  0  0
  6  7  1  0  0  0  0
  6  8  1  0  0  0  0
M  END
> <RowID>
533

> <Original_SMILES>
CC(O)C(=O)N(C)C

> <Canonical_QSARr>
CC(O)C(=O)N(C)C

> <InChI_Code_QSARr>
InChI=1S/C5H11NO2/c1-4(7)5(8)6(2)3/h4,7H,1-3H3

> <InChI Key_QSARr>
YEBLAXBYYVCOLT-UHFFFAOYSA-N

> <Salt_Solvent>


> <Salt_Solvent_ID>
0

> <Number of connected components>
1

$$$$
Molecule_534
  Mrv2316 01072400032D          

 20 21  0  0  0  0            999 V2000
    3.9934   -2.0239    0.0000 C   0  0  0  0  0  0  0  0  0  0  0  0
    3.9934   -1.1989    0.0000 C   0  0  0  0  0  0  0  0  0  0  0  0
    4.7079   -0.7864    0.0000 O   0  0  0  0  0  0  0  0  0  0  0  0
    3.2789   -0.7864    0.0000 N   0  0  0  0  0  0  0  0  0  0  0  0
    3.2789    0.0386    0.0000 C   0  0  0  0  0  0  0  0  0  0  0  0
    3.9934    0.4511    0.0000 C   0  0  0  0  0  0  0  0  0  0  0  0
    3.9934    1.2761    0.0000 C   0  0  0  0  0  0  0  0  0  0  0  0
    4.7079    1.6886    0.0000 C   0  0  0  0  0  0  0  0  0  0  0  0
    3.2789    1.6886    0.0000 S   0  0  0  0  0  0  0  0  0  0  0  0
    3.8092    2.3206    0.0000 O   0  0  0  0  0  0  0  0  0  0  0  0
    2.7486    2.3206    0.0000 O   0  0  0  0  0  0  0  0  0  0  0  0
    2.5645    1.2761    0.0000 C   0  0  0  0  0  0  0  0  0  0  0  0
    1.7798    1.5310    0.0000 S   0  0  0  0  0  0  0  0  0  0  0  0
    1.2949    0.8636    0.0000 C   0  0  0  0  0  0  0  0  0  0  0  0
    1.7798    0.1962    0.0000 C   0  0  0  0  0  0  0  0  0  0  0  0
    2.5645    0.4511    0.0000 C   0  0  0  0  0  0  0  0  0  0  0  0
    0.4699    0.8636    0.0000 S   0  0  0  0  0  0  0  0  0  0  0  0
   -0.3551    0.8636    0.0000 N   0  0  0  0  0  0  0  0  0  0  0  0
    0.4699    1.6886    0.0000 O   0  0  0  0  0  0  0  0  0  0  0  0
    0.4699    0.0386    0.0000 O   0  0  0  0  0  0  0  0  0  0  0  0
  1  2  1  0  0  0  0
  2  3  2  0  0  0  0
  2  4  1  0  0  0  0
  4  5  1  0  0  0  0
  6  5  1  0  0  0  0
  7  6  1  0  0  0  0
  7  8  1  0  0  0  0
  9  7  1  0  0  0  0
  9 10  2  0  0  0  0
  9 11  2  0  0  0  0
 12  9  1  0  0  0  0
 12 13  1  0  0  0  0
 13 14  1  0  0  0  0
 14 15  2  0  0  0  0
 15 16  1  0  0  0  0
  5 16  1  0  0  0  0
 16 12  2  0  0  0  0
 14 17  1  0  0  0  0
 17 18  1  0  0  0  0
 17 19  2  0  0  0  0
 17 20  2  0  0  0  0
M  END
> <RowID>
534

> <Original_SMILES>
CC(=O)NC1CC(C)S(=O)(=O)C2SC(=CC=21)S(N)(=O)=O

> <Canonical_QSARr>
CC(=O)NC1CC(C)S(=O)(=O)C2SC(=CC=21)S(N)(=O)=O

> <InChI_Code_QSARr>
InChI=1S/C10H14N2O5S3/c1-5-3-8(12-6(2)13)7-4-9(20(11,16)17)18-10(7)19(5,14)15/h4-5,8H,3H2,1-2H3,(H,12,13)(H2,11,16,17)

> <InChI Key_QSARr>
MQRCTNZVQVRCRD-UHFFFAOYSA-N

> <Salt_Solvent>


> <Salt_Solvent_ID>
0

> <Number of connected components>
1

$$$$
Molecule_535
  Mrv2316 01072400032D          

 41 43  0  0  0  0            999 V2000
  -16.0196   -8.6598    0.0000 C   0  0  0  0  0  0  0  0  0  0  0  0
  -15.2270   -8.4309    0.0000 C   0  0  0  0  0  0  0  0  0  0  0  0
  -14.9982   -9.2236    0.0000 C   0  0  0  0  0  0  0  0  0  0  0  0
  -15.4558   -7.6383    0.0000 C   0  0  0  0  0  0  0  0  0  0  0  0
  -14.4344   -8.2021    0.0000 C   0  0  0  0  0  0  0  0  0  0  0  0
  -14.1536   -7.4264    0.0000 N   0  0  0  0  0  0  0  0  0  0  0  0
  -13.3290   -7.4537    0.0000 N   0  0  0  0  0  0  0  0  0  0  0  0
  -12.6459   -6.9912    0.0000 N   0  0  0  0  0  0  0  0  0  0  0  0
  -11.9949   -7.4979    0.0000 C   0  0  0  0  0  0  0  0  0  0  0  0
  -12.2757   -8.2737    0.0000 N   0  0  0  0  0  0  0  0  0  0  0  0
  -13.1002   -8.2463    0.0000 C   0  0  0  0  0  0  0  0  0  0  0  0
  -13.7834   -8.7089    0.0000 C   0  0  0  0  0  0  0  0  0  0  0  0
  -13.8107   -9.5334    0.0000 Cl  0  0  0  0  0  0  0  0  0  0  0  0
  -11.2023   -7.2691    0.0000 C   0  0  0  0  0  0  0  0  0  0  0  0
  -10.6078   -7.8411    0.0000 C   0  0  0  0  0  0  0  0  0  0  0  0
   -9.8152   -7.6123    0.0000 C   0  0  0  0  0  0  0  0  0  0  0  0
   -9.6170   -6.8115    0.0000 C   0  0  0  0  0  0  0  0  0  0  0  0
   -8.8244   -6.5827    0.0000 N   0  0  0  0  0  0  0  0  0  0  0  0
   -8.6262   -5.7818    0.0000 C   0  0  0  0  0  0  0  0  0  0  0  0
   -9.2207   -5.2098    0.0000 O   0  0  0  0  0  0  0  0  0  0  0  0
   -7.8336   -5.5530    0.0000 C   0  0  0  0  0  0  0  0  0  0  0  0
   -7.6354   -4.7521    0.0000 O   0  0  0  0  0  0  0  0  0  0  0  0
   -6.8428   -4.5233    0.0000 C   0  0  0  0  0  0  0  0  0  0  0  0
   -6.2483   -5.0954    0.0000 O   0  0  0  0  0  0  0  0  0  0  0  0
   -6.6446   -3.7225    0.0000 C   0  0  0  0  0  0  0  0  0  0  0  0
   -7.2391   -3.1505    0.0000 C   0  0  0  0  0  0  0  0  0  0  0  0
   -7.0409   -2.3496    0.0000 C   0  0  0  0  0  0  0  0  0  0  0  0
   -7.6354   -1.7776    0.0000 C   0  0  0  0  0  0  0  0  0  0  0  0
   -7.4372   -0.9767    0.0000 C   0  0  0  0  0  0  0  0  0  0  0  0
   -8.0317   -0.4047    0.0000 C   0  0  0  0  0  0  0  0  0  0  0  0
   -7.8336    0.3962    0.0000 C   0  0  0  0  0  0  0  0  0  0  0  0
   -5.8520   -3.4937    0.0000 C   0  0  0  0  0  0  0  0  0  0  0  0
   -5.6538   -2.6928    0.0000 C   0  0  0  0  0  0  0  0  0  0  0  0
   -4.8612   -2.4640    0.0000 C   0  0  0  0  0  0  0  0  0  0  0  0
   -4.6630   -1.6632    0.0000 C   0  0  0  0  0  0  0  0  0  0  0  0
   -3.8704   -1.4343    0.0000 C   0  0  0  0  0  0  0  0  0  0  0  0
   -3.6722   -0.6335    0.0000 C   0  0  0  0  0  0  0  0  0  0  0  0
   -2.8796   -0.4047    0.0000 C   0  0  0  0  0  0  0  0  0  0  0  0
   -2.6814    0.3962    0.0000 C   0  0  0  0  0  0  0  0  0  0  0  0
  -10.2115   -6.2394    0.0000 C   0  0  0  0  0  0  0  0  0  0  0  0
  -11.0041   -6.4683    0.0000 C   0  0  0  0  0  0  0  0  0  0  0  0
  1  2  1  0  0  0  0
  2  3  1  0  0  0  0
  2  4  1  0  0  0  0
  2  5  1  0  0  0  0
  6  5  2  0  0  0  0
  7  6  1  0  0  0  0
  7  8  1  0  0  0  0
  8  9  2  0  0  0  0
  9 10  1  0  0  0  0
 10 11  1  0  0  0  0
 11  7  1  0  0  0  0
 12 11  2  0  0  0  0
  5 12  1  0  0  0  0
 12 13  1  0  0  0  0
  9 14  1  0  0  0  0
 15 14  2  0  0  0  0
 16 15  1  0  0  0  0
 17 16  2  0  0  0  0
 17 18  1  0  0  0  0
 18 19  1  0  0  0  0
 19 20  2  0  0  0  0
 19 21  1  0  0  0  0
 21 22  1  0  0  0  0
 22 23  1  0  0  0  0
 23 24  2  0  0  0  0
 23 25  1  0  0  0  0
 25 26  1  0  0  0  0
 26 27  1  0  0  0  0
 27 28  1  0  0  0  0
 28 29  1  0  0  0  0
 29 30  1  0  0  0  0
 30 31  1  0  0  0  0
 25 32  1  0  0  0  0
 32 33  1  0  0  0  0
 33 34  1  0  0  0  0
 34 35  1  0  0  0  0
 35 36  1  0  0  0  0
 36 37  1  0  0  0  0
 37 38  1  0  0  0  0
 38 39  1  0  0  0  0
 40 17  1  0  0  0  0
 41 40  2  0  0  0  0
 14 41  1  0  0  0  0
M  END
> <RowID>
535

> <Original_SMILES>
CC(C)(C)C1=NN2N=C(NC2=C1Cl)C1=CC=C(C=C1)NC(=O)COC(=O)C(CCCCCC)CCCCCCCC

> <Canonical_QSARr>
CC(C)(C)C1=NN2N=C(NC2=C1Cl)C1=CC=C(C=C1)NC(=O)COC(=O)C(CCCCCC)CCCCCCCC

> <InChI_Code_QSARr>
InChI=1S/C32H48ClN5O3/c1-6-8-10-12-13-15-17-24(16-14-11-9-7-2)31(40)41-22-26(39)34-25-20-18-23(19-21-25)29-35-30-27(33)28(32(3,4)5)36-38(30)37-29/h18-21,24H,6-17,22H2,1-5H3,(H,34,39)(H,35,37)

> <InChI Key_QSARr>
YSMXWRVHMQSPJL-UHFFFAOYSA-N

> <Salt_Solvent>


> <Salt_Solvent_ID>
0

> <Number of connected components>
1

$$$$
Molecule_536
  Mrv2316 01072400032D          

 15 15  0  0  0  0            999 V2000
    0.6431   -2.3047    0.0000 C   0  0  0  0  0  0  0  0  0  0  0  0
    1.3576   -1.8922    0.0000 C   0  0  0  0  0  0  0  0  0  0  0  0
    2.0720   -2.3047    0.0000 C   0  0  0  0  0  0  0  0  0  0  0  0
    2.7865   -1.8922    0.0000 C   0  0  0  0  0  0  0  0  0  0  0  0
    3.5010   -2.3047    0.0000 C   0  0  0  0  0  0  0  0  0  0  0  0
    4.2154   -1.8922    0.0000 C   0  0  0  0  0  0  0  0  0  0  0  0
    4.9691   -2.2278    0.0000 C   0  0  0  0  0  0  0  0  0  0  0  0
    5.1406   -3.0347    0.0000 C   0  0  0  0  0  0  0  0  0  0  0  0
    4.5276   -3.5868    0.0000 O   0  0  0  0  0  0  0  0  0  0  0  0
    5.9253   -3.2897    0.0000 O   0  0  0  0  0  0  0  0  0  0  0  0
    6.5384   -2.7376    0.0000 C   0  0  0  0  0  0  0  0  0  0  0  0
    5.5212   -1.6147    0.0000 C   0  0  0  0  0  0  0  0  0  0  0  0
    5.1087   -0.9002    0.0000 C   0  0  0  0  0  0  0  0  0  0  0  0
    4.3017   -1.0717    0.0000 C   0  0  0  0  0  0  0  0  0  0  0  0
    3.6886   -0.5197    0.0000 O   0  0  0  0  0  0  0  0  0  0  0  0
  1  2  1  0  0  0  0
  2  3  1  0  0  0  0
  3  4  1  0  0  0  0
  4  5  1  0  0  0  0
  5  6  1  0  0  0  0
  7  6  1  0  0  0  0
  7  8  1  0  0  0  0
  8  9  2  0  0  0  0
  8 10  1  0  0  0  0
 10 11  1  0  0  0  0
 12  7  1  0  0  0  0
 13 12  1  0  0  0  0
 14 13  1  0  0  0  0
  6 14  1  0  0  0  0
 14 15  2  0  0  0  0
M  END
> <RowID>
536

> <Original_SMILES>
CCCCCC1C(CCC1=O)C(=O)OC

> <Canonical_QSARr>
CCCCCC1C(CCC1=O)C(=O)OC

> <InChI_Code_QSARr>
InChI=1S/C12H20O3/c1-3-4-5-6-9-10(12(14)15-2)7-8-11(9)13/h9-10H,3-8H2,1-2H3

> <InChI Key_QSARr>
UQWSOBVONQGHLN-UHFFFAOYSA-N

> <Salt_Solvent>


> <Salt_Solvent_ID>
0

> <Number of connected components>
1

$$$$
Molecule_537
  Mrv2316 01072400032D          

 10 10  0  0  0  0            999 V2000
    2.1434   -0.4125    0.0000 Cl  0  0  0  0  0  0  0  0  0  0  0  0
    1.4289   -0.0000    0.0000 C   0  0  0  0  0  0  0  0  0  0  0  0
    1.4289    0.8250    0.0000 C   0  0  0  0  0  0  0  0  0  0  0  0
    0.7145    1.2375    0.0000 C   0  0  0  0  0  0  0  0  0  0  0  0
    0.7145    2.0625    0.0000 Cl  0  0  0  0  0  0  0  0  0  0  0  0
   -0.0000    0.8250    0.0000 C   0  0  0  0  0  0  0  0  0  0  0  0
   -0.7145    1.2375    0.0000 Cl  0  0  0  0  0  0  0  0  0  0  0  0
   -0.0000    0.0000    0.0000 N   0  0  0  0  0  0  0  0  0  0  0  0
    0.7145   -0.4125    0.0000 C   0  0  0  0  0  0  0  0  0  0  0  0
    0.7145   -1.2375    0.0000 Cl  0  0  0  0  0  0  0  0  0  0  0  0
  1  2  1  0  0  0  0
  3  2  2  0  0  0  0
  4  3  1  0  0  0  0
  4  5  1  0  0  0  0
  6  4  2  0  0  0  0
  6  7  1  0  0  0  0
  8  6  1  0  0  0  0
  9  8  2  0  0  0  0
  2  9  1  0  0  0  0
  9 10  1  0  0  0  0
M  END
> <RowID>
537

> <Original_SMILES>
ClC1=CC(Cl)=C(Cl)N=C1Cl

> <Canonical_QSARr>
ClC1=CC(Cl)=C(Cl)N=C1Cl

> <InChI_Code_QSARr>
InChI=1S/C5HCl4N/c6-2-1-3(7)5(9)10-4(2)8/h1H

> <InChI Key_QSARr>
FATBKZJZAHWCSL-UHFFFAOYSA-N

> <Salt_Solvent>


> <Salt_Solvent_ID>
0

> <Number of connected components>
1

$$$$
Molecule_538
  Mrv2316 01072400032D          

 38 43  0  0  0  0            999 V2000
    0.2239    2.9228    0.0000 C   0  0  0  0  0  0  0  0  0  0  0  0
    0.4788    2.1382    0.0000 N   0  0  0  0  0  0  0  0  0  0  0  0
   -0.0061    1.4707    0.0000 C   0  0  0  0  0  0  0  0  0  0  0  0
   -0.8311    1.4707    0.0000 C   0  0  0  0  0  0  0  0  0  0  0  0
   -1.2436    2.1852    0.0000 C   0  0  0  0  0  0  0  0  0  0  0  0
   -2.0686    2.1852    0.0000 C   0  0  0  0  0  0  0  0  0  0  0  0
   -2.4811    2.8997    0.0000 C   0  0  0  0  0  0  0  0  0  0  0  0
   -2.4811    1.4707    0.0000 C   0  0  0  0  0  0  0  0  0  0  0  0
   -3.2881    1.2992    0.0000 N   0  0  0  0  0  0  0  0  0  0  0  0
   -3.3743    0.4787    0.0000 C   0  0  0  0  0  0  0  0  0  0  0  0
   -4.0888    0.0662    0.0000 C   0  0  0  0  0  0  0  0  0  0  0  0
   -4.8033    0.4787    0.0000 C   0  0  0  0  0  0  0  0  0  0  0  0
   -4.8033    1.3037    0.0000 C   0  0  0  0  0  0  0  0  0  0  0  0
   -2.6206    0.1432    0.0000 N   0  0  0  0  0  0  0  0  0  0  0  0
   -2.4491   -0.6638    0.0000 C   0  0  0  0  0  0  0  0  0  0  0  0
   -3.0622   -1.2158    0.0000 C   0  0  0  0  0  0  0  0  0  0  0  0
   -3.8468   -0.9609    0.0000 C   0  0  0  0  0  0  0  0  0  0  0  0
   -4.4599   -1.5129    0.0000 C   0  0  0  0  0  0  0  0  0  0  0  0
   -4.2884   -2.3199    0.0000 C   0  0  0  0  0  0  0  0  0  0  0  0
   -4.9015   -2.8719    0.0000 C   0  0  0  0  0  0  0  0  0  0  0  0
   -5.6861   -2.6170    0.0000 C   0  0  0  0  0  0  0  0  0  0  0  0
   -6.2992   -3.1690    0.0000 C   0  0  0  0  0  0  0  0  0  0  0  0
   -6.1277   -3.9760    0.0000 C   0  0  0  0  0  0  0  0  0  0  0  0
   -5.3431   -4.2309    0.0000 C   0  0  0  0  0  0  0  0  0  0  0  0
   -4.7300   -3.6789    0.0000 C   0  0  0  0  0  0  0  0  0  0  0  0
   -3.9453   -3.9338    0.0000 C   0  0  0  0  0  0  0  0  0  0  0  0
   -3.1607   -4.1888    0.0000 N   0  0  0  0  0  0  0  0  0  0  0  0
   -3.5038   -2.5748    0.0000 C   0  0  0  0  0  0  0  0  0  0  0  0
   -2.8907   -2.0228    0.0000 C   0  0  0  0  0  0  0  0  0  0  0  0
   -2.0686    0.7563    0.0000 C   0  0  0  0  0  0  0  0  0  0  0  0
   -1.2436    0.7563    0.0000 C   0  0  0  0  0  0  0  0  0  0  0  0
    0.4788    0.8033    0.0000 N   0  0  0  0  0  0  0  0  0  0  0  0
    1.2634    1.0582    0.0000 C   0  0  0  0  0  0  0  0  0  0  0  0
    1.9779    0.6457    0.0000 C   0  0  0  0  0  0  0  0  0  0  0  0
    2.6924    1.0582    0.0000 C   0  0  0  0  0  0  0  0  0  0  0  0
    2.6924    1.8832    0.0000 C   0  0  0  0  0  0  0  0  0  0  0  0
    1.9779    2.2957    0.0000 C   0  0  0  0  0  0  0  0  0  0  0  0
    1.2634    1.8832    0.0000 C   0  0  0  0  0  0  0  0  0  0  0  0
  1  2  1  0  0  0  0
  3  2  1  0  0  0  0
  3  4  1  0  0  0  0
  5  4  1  0  0  0  0
  6  5  2  0  0  0  0
  6  7  1  0  0  0  0
  8  6  1  0  0  0  0
  8  9  1  0  0  0  0
  9 10  2  0  0  0  0
 10 11  1  0  0  0  0
 11 12  1  0  0  0  0
 12 13  1  0  0  0  0
 10 14  1  0  0  0  0
 14 15  1  0  0  0  0
 15 16  1  0  0  0  0
 17 16  1  0  0  0  0
 18 17  2  0  0  0  0
 19 18  1  0  0  0  0
 19 20  1  0  0  0  0
 21 20  2  0  0  0  0
 22 21  1  0  0  0  0
 23 22  2  0  0  0  0
 24 23  1  0  0  0  0
 25 24  2  0  0  0  0
 20 25  1  0  0  0  0
 25 26  1  0  0  0  0
 26 27  3  0  0  0  0
 28 19  2  0  0  0  0
 29 28  1  0  0  0  0
 16 29  2  0  0  0  0
 14 30  1  0  0  0  0
 30  8  2  0  0  0  0
 31 30  1  0  0  0  0
  4 31  2  0  0  0  0
 32  3  2  0  0  0  0
 33 32  1  0  0  0  0
 33 34  2  0  0  0  0
 34 35  1  0  0  0  0
 35 36  2  0  0  0  0
 36 37  1  0  0  0  0
 37 38  2  0  0  0  0
  2 38  1  0  0  0  0
 38 33  1  0  0  0  0
M  END
> <RowID>
538

> <Original_SMILES>
CN1C(=NC2=CC=CC=C12)C1C=C(C)C2N=C(CCC)N(CC3C=CC(=CC=3)C3=CC=CC=C3C#N)C=2C=1

> <Canonical_QSARr>
CN1C(=NC2=CC=CC=C12)C1C=C(C)C2N=C(CCC)N(CC3C=CC(=CC=3)C3=CC=CC=C3C#N)C=2C=1

> <InChI_Code_QSARr>
InChI=1S/C33H29N5/c1-4-9-31-36-32-22(2)18-26(33-35-28-12-7-8-13-29(28)37(33)3)19-30(32)38(31)21-23-14-16-24(17-15-23)27-11-6-5-10-25(27)20-34/h5-8,10-19H,4,9,21H2,1-3H3

> <InChI Key_QSARr>
XIEVZYAEXURSHX-UHFFFAOYSA-N

> <Salt_Solvent>


> <Salt_Solvent_ID>
0

> <Number of connected components>
1

$$$$
Molecule_539
  Mrv2316 01072400032D          

 15 16  0  0  0  0            999 V2000
   -0.3334    9.6151    0.0000 C   0  0  0  0  0  0  0  0  0  0  0  0
   -0.3334    8.7901    0.0000 C   0  0  0  0  0  0  0  0  0  0  0  0
   -1.1584    8.7901    0.0000 C   0  0  0  0  0  0  0  0  0  0  0  0
    0.4916    8.7901    0.0000 C   0  0  0  0  0  0  0  0  0  0  0  0
   -0.3334    7.9651    0.0000 C   0  0  0  0  0  0  0  0  0  0  0  0
   -1.0479    7.5526    0.0000 C   0  0  0  0  0  0  0  0  0  0  0  0
   -1.0479    6.7276    0.0000 C   0  0  0  0  0  0  0  0  0  0  0  0
   -0.3334    6.3151    0.0000 C   0  0  0  0  0  0  0  0  0  0  0  0
   -0.3334    5.4901    0.0000 O   0  0  0  0  0  0  0  0  0  0  0  0
   -1.0479    5.0776    0.0000 C   0  0  0  0  0  0  0  0  0  0  0  0
   -1.0479    4.2526    0.0000 C   0  0  0  0  0  0  0  0  0  0  0  0
   -1.4604    3.5381    0.0000 C   0  0  0  0  0  0  0  0  0  0  0  0
   -0.6354    3.5381    0.0000 O   0  0  0  0  0  0  0  0  0  0  0  0
    0.3810    6.7276    0.0000 C   0  0  0  0  0  0  0  0  0  0  0  0
    0.3810    7.5526    0.0000 C   0  0  0  0  0  0  0  0  0  0  0  0
  1  2  1  0  0  0  0
  2  3  1  0  0  0  0
  2  4  1  0  0  0  0
  2  5  1  0  0  0  0
  6  5  1  0  0  0  0
  7  6  2  0  0  0  0
  8  7  1  0  0  0  0
  8  9  1  0  0  0  0
  9 10  1  0  0  0  0
 10 11  1  0  0  0  0
 12 11  1  0  0  0  0
 13 12  1  0  0  0  0
 11 13  1  0  0  0  0
 14  8  2  0  0  0  0
 15 14  1  0  0  0  0
  5 15  2  0  0  0  0
M  END
> <RowID>
539

> <Original_SMILES>
CC(C)(C)C1C=CC(=CC=1)OCC1CO1

> <Canonical_QSARr>
CC(C)(C)C1C=CC(=CC=1)OCC1CO1

> <InChI_Code_QSARr>
InChI=1S/C13H18O2/c1-13(2,3)10-4-6-11(7-5-10)14-8-12-9-15-12/h4-7,12H,8-9H2,1-3H3

> <InChI Key_QSARr>
HHRACYLRBOUBKM-UHFFFAOYSA-N

> <Salt_Solvent>


> <Salt_Solvent_ID>
0

> <Number of connected components>
1

$$$$
Molecule_540
  Mrv2316 01072400032D          

 24 23  0  0  0  0            999 V2000
    9.7086    6.4302    0.0000 C   0  0  0  0  0  0  0  0  0  0  0  0
   10.4230    6.8427    0.0000 O   0  0  0  0  0  0  0  0  0  0  0  0
   11.1375    6.4302    0.0000 C   0  0  0  0  0  0  0  0  0  0  0  0
   11.1375    5.6052    0.0000 O   0  0  0  0  0  0  0  0  0  0  0  0
   11.8520    6.8427    0.0000 C   0  0  0  0  0  0  0  0  0  0  0  0
   12.5664    6.4302    0.0000 C   0  0  0  0  0  0  0  0  0  0  0  0
   13.2809    6.8427    0.0000 C   0  0  0  0  0  0  0  0  0  0  0  0
   13.9954    6.4302    0.0000 C   0  0  0  0  0  0  0  0  0  0  0  0
   14.7099    6.8427    0.0000 C   0  0  0  0  0  0  0  0  0  0  0  0
   15.4243    6.4302    0.0000 C   0  0  0  0  0  0  0  0  0  0  0  0
   16.1388    6.8427    0.0000 C   0  0  0  0  0  0  0  0  0  0  0  0
   16.8533    6.4302    0.0000 C   0  0  0  0  0  0  0  0  0  0  0  0
   17.5677    6.8427    0.0000 C   0  0  0  0  0  0  0  0  0  0  0  0
   18.2822    6.4302    0.0000 C   0  0  0  0  0  0  0  0  0  0  0  0
   18.9967    6.8427    0.0000 C   0  0  0  0  0  0  0  0  0  0  0  0
   19.7111    6.4302    0.0000 C   0  0  0  0  0  0  0  0  0  0  0  0
   20.4256    6.8427    0.0000 C   0  0  0  0  0  0  0  0  0  0  0  0
   21.1401    6.4302    0.0000 C   0  0  0  0  0  0  0  0  0  0  0  0
   21.8546    6.8427    0.0000 C   0  0  0  0  0  0  0  0  0  0  0  0
   22.5690    6.4302    0.0000 C   0  0  0  0  0  0  0  0  0  0  0  0
   23.2835    6.8427    0.0000 C   0  0  0  0  0  0  0  0  0  0  0  0
   23.2835    7.6677    0.0000 O   0  0  0  0  0  0  0  0  0  0  0  0
   23.9980    6.4302    0.0000 O   0  0  0  0  0  0  0  0  0  0  0  0
   24.7124    6.8427    0.0000 C   0  0  0  0  0  0  0  0  0  0  0  0
  1  2  1  0  0  0  0
  2  3  1  0  0  0  0
  3  4  2  0  0  0  0
  3  5  1  0  0  0  0
  5  6  1  0  0  0  0
  6  7  1  0  0  0  0
  7  8  1  0  0  0  0
  8  9  1  0  0  0  0
  9 10  1  0  0  0  0
 10 11  1  0  0  0  0
 11 12  1  0  0  0  0
 12 13  1  0  0  0  0
 13 14  1  0  0  0  0
 14 15  1  0  0  0  0
 15 16  1  0  0  0  0
 16 17  1  0  0  0  0
 17 18  1  0  0  0  0
 18 19  1  0  0  0  0
 19 20  1  0  0  0  0
 20 21  1  0  0  0  0
 21 22  2  0  0  0  0
 21 23  1  0  0  0  0
 23 24  1  0  0  0  0
M  END
> <RowID>
540

> <Original_SMILES>
COC(=O)CCCCCCCCCCCCCCCCC(=O)OC

> <Canonical_QSARr>
COC(=O)CCCCCCCCCCCCCCCCC(=O)OC

> <InChI_Code_QSARr>
InChI=1S/C20H38O4/c1-23-19(21)17-15-13-11-9-7-5-3-4-6-8-10-12-14-16-18-20(22)24-2/h3-18H2,1-2H3

> <InChI Key_QSARr>
ZOXMHKCFDXHCJX-UHFFFAOYSA-N

> <Salt_Solvent>


> <Salt_Solvent_ID>
0

> <Number of connected components>
1

$$$$
Molecule_541
  Mrv2316 01072400032D          

 20 19  0  0  0  0            999 V2000
   -2.0329    2.4750    0.0000 C   0  0  0  0  0  0  0  0  0  0  0  0
   -2.0329    1.6500    0.0000 C   0  0  0  0  0  0  0  0  0  0  0  0
   -1.3184    1.2375    0.0000 C   0  0  0  0  0  0  0  0  0  0  0  0
   -1.3184    0.4125    0.0000 C   0  0  0  0  0  0  0  0  0  0  0  0
   -0.6039    0.0000    0.0000 N   0  0  0  0  0  0  0  0  0  0  0  0
   -0.6039   -0.8250    0.0000 C   0  0  0  0  0  0  0  0  0  0  0  0
    0.1105   -1.2375    0.0000 Si  0  0  0  0  0  0  0  0  0  0  0  0
    0.8250   -1.6500    0.0000 O   0  0  0  0  0  0  0  0  0  0  0  0
    0.8250   -2.4750    0.0000 C   0  0  0  0  0  0  0  0  0  0  0  0
    1.5395   -2.8875    0.0000 C   0  0  0  0  0  0  0  0  0  0  0  0
   -0.3020   -1.9520    0.0000 O   0  0  0  0  0  0  0  0  0  0  0  0
    0.1105   -2.6664    0.0000 C   0  0  0  0  0  0  0  0  0  0  0  0
   -0.3020   -3.3809    0.0000 C   0  0  0  0  0  0  0  0  0  0  0  0
    0.5230   -0.5230    0.0000 O   0  0  0  0  0  0  0  0  0  0  0  0
    1.3480   -0.5230    0.0000 C   0  0  0  0  0  0  0  0  0  0  0  0
    1.7605   -1.2375    0.0000 C   0  0  0  0  0  0  0  0  0  0  0  0
    0.1105    0.4125    0.0000 C   0  0  0  0  0  0  0  0  0  0  0  0
    0.8250    0.0000    0.0000 C   0  0  0  0  0  0  0  0  0  0  0  0
    1.5395    0.4125    0.0000 C   0  0  0  0  0  0  0  0  0  0  0  0
    2.2539    0.0000    0.0000 C   0  0  0  0  0  0  0  0  0  0  0  0
  1  2  1  0  0  0  0
  2  3  1  0  0  0  0
  3  4  1  0  0  0  0
  4  5  1  0  0  0  0
  5  6  1  0  0  0  0
  6  7  1  0  0  0  0
  7  8  1  0  0  0  0
  8  9  1  0  0  0  0
  9 10  1  0  0  0  0
  7 11  1  0  0  0  0
 11 12  1  0  0  0  0
 12 13  1  0  0  0  0
  7 14  1  0  0  0  0
 14 15  1  0  0  0  0
 15 16  1  0  0  0  0
  5 17  1  0  0  0  0
 17 18  1  0  0  0  0
 18 19  1  0  0  0  0
 19 20  1  0  0  0  0
M  END
> <RowID>
541

> <Original_SMILES>
CCCCN(C[Si](OCC)(OCC)OCC)CCCC

> <Canonical_QSARr>
CCCCN(C[Si](OCC)(OCC)OCC)CCCC

> <InChI_Code_QSARr>
InChI=1S/C15H35NO3Si/c1-6-11-13-16(14-12-7-2)15-20(17-8-3,18-9-4)19-10-5/h6-15H2,1-5H3

> <InChI Key_QSARr>
BWYLUCQZPVGWLL-UHFFFAOYSA-N

> <Salt_Solvent>


> <Salt_Solvent_ID>
0

> <Number of connected components>
1

$$$$
Molecule_543
  Mrv2316 01072400032D          

 15 16  0  0  0  0            999 V2000
   -0.3984    0.7541    0.0000 O   0  0  0  0  0  0  0  0  0  0  0  0
   -0.1435   -0.0305    0.0000 C   0  0  0  0  0  0  0  0  0  0  0  0
   -0.6284   -0.6979    0.0000 O   0  0  0  0  0  0  0  0  0  0  0  0
   -0.1435   -1.3654    0.0000 C   0  0  0  0  0  0  0  0  0  0  0  0
   -0.3984   -2.1500    0.0000 O   0  0  0  0  0  0  0  0  0  0  0  0
    0.6411   -1.1104    0.0000 C   0  0  0  0  0  0  0  0  0  0  0  0
    0.6411   -0.2854    0.0000 C   0  0  0  0  0  0  0  0  0  0  0  0
    1.3556    0.1271    0.0000 C   0  0  0  0  0  0  0  0  0  0  0  0
    1.3556    0.9521    0.0000 Br  0  0  0  0  0  0  0  0  0  0  0  0
    2.0701   -0.2854    0.0000 C   0  0  0  0  0  0  0  0  0  0  0  0
    2.7845    0.1271    0.0000 Br  0  0  0  0  0  0  0  0  0  0  0  0
    2.0701   -1.1104    0.0000 C   0  0  0  0  0  0  0  0  0  0  0  0
    2.7845   -1.5229    0.0000 Br  0  0  0  0  0  0  0  0  0  0  0  0
    1.3556   -1.5229    0.0000 C   0  0  0  0  0  0  0  0  0  0  0  0
    1.3556   -2.3479    0.0000 Br  0  0  0  0  0  0  0  0  0  0  0  0
  1  2  2  0  0  0  0
  3  2  1  0  0  0  0
  4  3  1  0  0  0  0
  4  5  2  0  0  0  0
  6  4  1  0  0  0  0
  6  7  1  0  0  0  0
  2  7  1  0  0  0  0
  7  8  2  0  0  0  0
  8  9  1  0  0  0  0
  8 10  1  0  0  0  0
 10 11  1  0  0  0  0
 10 12  2  0  0  0  0
 12 13  1  0  0  0  0
 12 14  1  0  0  0  0
 14  6  2  0  0  0  0
 14 15  1  0  0  0  0
M  END
> <RowID>
543

> <Original_SMILES>
O=C1OC(=O)C2C1=C(Br)C(Br)=C(Br)C=2Br

> <Canonical_QSARr>
O=C1OC(=O)C2C1=C(Br)C(Br)=C(Br)C=2Br

> <InChI_Code_QSARr>
InChI=1S/C8Br4O3/c9-3-1-2(8(14)15-7(1)13)4(10)6(12)5(3)11

> <InChI Key_QSARr>
QHWKHLYUUZGSCW-UHFFFAOYSA-N

> <Salt_Solvent>


> <Salt_Solvent_ID>
0

> <Number of connected components>
1

$$$$
Molecule_544
  Mrv2316 01072400032D          

 21 21  0  0  0  0            999 V2000
    1.9816    2.3822    0.0000 F   0  0  0  0  0  0  0  0  0  0  0  0
    1.6995    1.6070    0.0000 C   0  0  0  0  0  0  0  0  0  0  0  0
    0.9242    1.8891    0.0000 F   0  0  0  0  0  0  0  0  0  0  0  0
    2.4747    1.3248    0.0000 F   0  0  0  0  0  0  0  0  0  0  0  0
    1.4173    0.8317    0.0000 C   0  0  0  0  0  0  0  0  0  0  0  0
    2.2298    0.6885    0.0000 F   0  0  0  0  0  0  0  0  0  0  0  0
    0.7028    1.2442    0.0000 C   0  0  0  0  0  0  0  0  0  0  0  0
    0.5033    2.0447    0.0000 F   0  0  0  0  0  0  0  0  0  0  0  0
    0.1725    1.8762    0.0000 F   0  0  0  0  0  0  0  0  0  0  0  0
   -0.0116    0.8317    0.0000 C   0  0  0  0  0  0  0  0  0  0  0  0
   -0.2938    1.6070    0.0000 F   0  0  0  0  0  0  0  0  0  0  0  0
   -0.8241    0.6885    0.0000 F   0  0  0  0  0  0  0  0  0  0  0  0
   -0.0116    0.0067    0.0000 C   0  0  0  0  0  0  0  0  0  0  0  0
   -0.8241    0.1500    0.0000 F   0  0  0  0  0  0  0  0  0  0  0  0
   -0.2938   -0.7685    0.0000 F   0  0  0  0  0  0  0  0  0  0  0  0
    0.7028   -0.4058    0.0000 C   0  0  0  0  0  0  0  0  0  0  0  0
    0.1725   -1.0378    0.0000 F   0  0  0  0  0  0  0  0  0  0  0  0
    1.2331   -1.0378    0.0000 F   0  0  0  0  0  0  0  0  0  0  0  0
    1.4173    0.0067    0.0000 C   0  0  0  0  0  0  0  0  0  0  0  0
    1.8545   -0.6929    0.0000 F   0  0  0  0  0  0  0  0  0  0  0  0
    2.2418   -0.0221    0.0000 F   0  0  0  0  0  0  0  0  0  0  0  0
  1  2  1  0  0  0  0
  2  3  1  0  0  0  0
  2  4  1  0  0  0  0
  2  5  1  0  0  0  0
  5  6  1  0  0  0  0
  7  5  1  0  0  0  0
  7  8  1  0  0  0  0
  7  9  1  0  0  0  0
 10  7  1  0  0  0  0
 10 11  1  0  0  0  0
 10 12  1  0  0  0  0
 13 10  1  0  0  0  0
 13 14  1  0  0  0  0
 13 15  1  0  0  0  0
 16 13  1  0  0  0  0
 16 17  1  0  0  0  0
 16 18  1  0  0  0  0
 19 16  1  0  0  0  0
  5 19  1  0  0  0  0
 19 20  1  0  0  0  0
 19 21  1  0  0  0  0
M  END
> <RowID>
544

> <Original_SMILES>
FC(F)(F)C1(F)C(F)(F)C(F)(F)C(F)(F)C(F)(F)C1(F)F

> <Canonical_QSARr>
FC(F)(F)C1(F)C(F)(F)C(F)(F)C(F)(F)C(F)(F)C1(F)F

> <InChI_Code_QSARr>
InChI=1S/C7F14/c8-1(7(19,20)21)2(9,10)4(13,14)6(17,18)5(15,16)3(1,11)12

> <InChI Key_QSARr>
QIROQPWSJUXOJC-UHFFFAOYSA-N

> <Salt_Solvent>


> <Salt_Solvent_ID>
0

> <Number of connected components>
1

$$$$
Molecule_545
  Mrv2316 01072400032D          

 13 12  0  0  0  0            999 V2000
    2.2539   -1.6500    0.0000 O   0  0  0  0  0  0  0  0  0  0  0  0
    1.5395   -1.2375    0.0000 S   0  0  0  0  0  0  0  0  0  0  0  0
    1.9520   -0.5230    0.0000 O   0  0  0  0  0  0  0  0  0  0  0  0
    1.1270   -1.9520    0.0000 O   0  0  0  0  0  0  0  0  0  0  0  0
    0.8250   -0.8250    0.0000 C   0  0  0  0  0  0  0  0  0  0  0  0
    0.8250   -0.0000    0.0000 C   0  0  0  0  0  0  0  0  0  0  0  0
    1.6500   -0.0000    0.0000 C   0  0  0  0  0  0  0  0  0  0  0  0
    0.8250    0.8250    0.0000 N   0  0  0  0  0  0  0  0  0  0  0  0
    0.1105    1.2375    0.0000 C   0  0  0  0  0  0  0  0  0  0  0  0
    0.1105    2.0625    0.0000 C   0  0  0  0  0  0  0  0  0  0  0  0
   -0.6039    2.4750    0.0000 C   0  0  0  0  0  0  0  0  0  0  0  0
   -0.6039    0.8250    0.0000 O   0  0  0  0  0  0  0  0  0  0  0  0
    0.0000   -0.0000    0.0000 C   0  0  0  0  0  0  0  0  0  0  0  0
  1  2  1  0  0  0  0
  2  3  2  0  0  0  0
  2  4  2  0  0  0  0
  2  5  1  0  0  0  0
  5  6  1  0  0  0  0
  6  7  1  0  0  0  0
  6  8  1  0  0  0  0
  8  9  1  0  0  0  0
  9 10  1  0  0  0  0
 10 11  2  0  0  0  0
  9 12  2  0  0  0  0
  6 13  1  0  0  0  0
M  END
> <RowID>
545

> <Original_SMILES>
[Na+].CC(C)(CS([O-])(=O)=O)NC(=O)C=C

> <Canonical_QSARr>
CC(C)(CS(O)(=O)=O)NC(=O)C=C

> <InChI_Code_QSARr>
InChI=1S/C7H13NO4S/c1-4-6(9)8-7(2,3)5-13(10,11)12/h4H,1,5H2,2-3H3,(H,8,9)(H,10,11,12)

> <InChI Key_QSARr>
XHZPRMZZQOIPDS-UHFFFAOYSA-N

> <Salt_Solvent>
[Na+]

> <Salt_Solvent_ID>
110

> <Number of connected components>
2

$$$$
Molecule_546
  Mrv2316 01072400032D          

 22 23  0  0  0  0            999 V2000
    0.7145   -8.5500    0.0000 C   0  0  0  0  0  0  0  0  0  0  0  0
    0.7145   -7.7250    0.0000 O   0  0  0  0  0  0  0  0  0  0  0  0
    1.4289   -7.3125    0.0000 C   0  0  0  0  0  0  0  0  0  0  0  0
    2.1434   -7.7250    0.0000 O   0  0  0  0  0  0  0  0  0  0  0  0
    1.4289   -6.4875    0.0000 C   0  0  0  0  0  0  0  0  0  0  0  0
    2.1434   -6.0750    0.0000 C   0  0  0  0  0  0  0  0  0  0  0  0
    2.1434   -5.2500    0.0000 C   0  0  0  0  0  0  0  0  0  0  0  0
    1.4289   -4.8375    0.0000 C   0  0  0  0  0  0  0  0  0  0  0  0
    1.4289   -4.0125    0.0000 C   0  0  0  0  0  0  0  0  0  0  0  0
    0.7145   -3.6000    0.0000 O   0  0  0  0  0  0  0  0  0  0  0  0
    2.1434   -3.6000    0.0000 N   0  0  0  0  0  0  0  0  0  0  0  0
    2.1434   -2.7750    0.0000 C   0  0  0  0  0  0  0  0  0  0  0  0
    2.8579   -2.3625    0.0000 C   0  0  0  0  0  0  0  0  0  0  0  0
    2.8579   -1.5375    0.0000 C   0  0  0  0  0  0  0  0  0  0  0  0
    3.5724   -1.1250    0.0000 Cl  0  0  0  0  0  0  0  0  0  0  0  0
    2.1434   -1.1250    0.0000 C   0  0  0  0  0  0  0  0  0  0  0  0
    1.4289   -1.5375    0.0000 C   0  0  0  0  0  0  0  0  0  0  0  0
    1.4289   -2.3625    0.0000 C   0  0  0  0  0  0  0  0  0  0  0  0
    0.7145   -2.7750    0.0000 Cl  0  0  0  0  0  0  0  0  0  0  0  0
    0.7145   -5.2500    0.0000 C   0  0  0  0  0  0  0  0  0  0  0  0
    0.7145   -6.0750    0.0000 C   0  0  0  0  0  0  0  0  0  0  0  0
   -0.0000   -6.4875    0.0000 N   0  0  0  0  0  0  0  0  0  0  0  0
  1  2  1  0  0  0  0
  2  3  1  0  0  0  0
  3  4  2  0  0  0  0
  3  5  1  0  0  0  0
  6  5  1  0  0  0  0
  7  6  2  0  0  0  0
  8  7  1  0  0  0  0
  8  9  1  0  0  0  0
  9 10  2  0  0  0  0
  9 11  1  0  0  0  0
 11 12  1  0  0  0  0
 13 12  2  0  0  0  0
 14 13  1  0  0  0  0
 14 15  1  0  0  0  0
 16 14  2  0  0  0  0
 17 16  1  0  0  0  0
 18 17  2  0  0  0  0
 12 18  1  0  0  0  0
 18 19  1  0  0  0  0
 20  8  2  0  0  0  0
 21 20  1  0  0  0  0
  5 21  2  0  0  0  0
 21 22  1  0  0  0  0
M  END
> <RowID>
546

> <Original_SMILES>
COC(=O)C1C=CC(=CC=1N)C(=O)NC1=CC(Cl)=CC=C1Cl

> <Canonical_QSARr>
COC(=O)C1C=CC(=CC=1N)C(=O)NC1=CC(Cl)=CC=C1Cl

> <InChI_Code_QSARr>
InChI=1S/C15H12Cl2N2O3/c1-22-15(21)10-4-2-8(6-12(10)18)14(20)19-13-7-9(16)3-5-11(13)17/h2-7H,18H2,1H3,(H,19,20)

> <InChI Key_QSARr>
SQYUJKVKVFILNB-UHFFFAOYSA-N

> <Salt_Solvent>


> <Salt_Solvent_ID>
0

> <Number of connected components>
1

$$$$
Molecule_547
  Mrv2316 01072400032D          

  4  3  0  0  0  0            999 V2000
    0.8250   -0.0000    0.0000 C   0  0  0  0  0  0  0  0  0  0  0  0
    1.2375    0.7145    0.0000 O   0  0  0  0  0  0  0  0  0  0  0  0
    1.2375   -0.7145    0.0000 O   0  0  0  0  0  0  0  0  0  0  0  0
    0.0000   -0.0000    0.0000 O   0  0  0  0  0  0  0  0  0  0  0  0
  1  2  1  0  0  0  0
  1  3  2  0  0  0  0
  1  4  1  0  0  0  0
M  END
> <RowID>
547

> <Original_SMILES>
[Nd+3].[Nd+3].[O-]C([O-])=O.[O-]C([O-])=O.[O-]C([O-])=O

> <Canonical_QSARr>
OC(O)=O

> <InChI_Code_QSARr>
InChI=1S/CH2O3/c2-1(3)4/h(H2,2,3,4)

> <InChI Key_QSARr>
BVKZGUZCCUSVTD-UHFFFAOYSA-N

> <Salt_Solvent>
[Nd+3]

> <Salt_Solvent_ID>
600

> <Number of connected components>
5

$$$$
Molecule_548
  Mrv2316 01072400032D          

 52 55  0  0  0  0            999 V2000
    1.4891   -6.3747    0.0000 C   0  0  0  0  0  0  0  0  0  0  0  0
    1.2190   -5.5952    0.0000 C   0  0  0  0  0  0  0  0  0  0  0  0
    0.4395   -5.8652    0.0000 C   0  0  0  0  0  0  0  0  0  0  0  0
    1.9986   -5.3251    0.0000 C   0  0  0  0  0  0  0  0  0  0  0  0
    0.9490   -4.8156    0.0000 C   0  0  0  0  0  0  0  0  0  0  0  0
    1.4891   -4.1920    0.0000 C   0  0  0  0  0  0  0  0  0  0  0  0
    1.2190   -3.4124    0.0000 C   0  0  0  0  0  0  0  0  0  0  0  0
    1.7591   -2.7888    0.0000 N   0  0  0  0  0  0  0  0  0  0  0  0
    2.5692   -2.9447    0.0000 C   0  0  0  0  0  0  0  0  0  0  0  0
    2.8393   -3.7242    0.0000 O   0  0  0  0  0  0  0  0  0  0  0  0
    3.1093   -2.3210    0.0000 C   0  0  0  0  0  0  0  0  0  0  0  0
    3.9195   -2.4770    0.0000 C   0  0  0  0  0  0  0  0  0  0  0  0
    4.4596   -1.8533    0.0000 N   0  0  0  0  0  0  0  0  0  0  0  0
    5.2697   -2.0092    0.0000 C   0  0  0  0  0  0  0  0  0  0  0  0
    5.8098   -1.3856    0.0000 C   0  0  0  0  0  0  0  0  0  0  0  0
    6.6199   -1.5415    0.0000 C   0  0  0  0  0  0  0  0  0  0  0  0
    6.8900   -2.3210    0.0000 C   0  0  0  0  0  0  0  0  0  0  0  0
    6.3499   -2.9447    0.0000 C   0  0  0  0  0  0  0  0  0  0  0  0
    5.5397   -2.7888    0.0000 C   0  0  0  0  0  0  0  0  0  0  0  0
    4.9996   -3.4124    0.0000 S   0  0  0  0  0  0  0  0  0  0  0  0
    5.7076   -3.8360    0.0000 O   0  0  0  0  0  0  0  0  0  0  0  0
    4.7054   -4.1832    0.0000 O   0  0  0  0  0  0  0  0  0  0  0  0
    4.1895   -3.2565    0.0000 N   0  0  0  0  0  0  0  0  0  0  0  0
    3.6494   -3.8801    0.0000 C   0  0  0  0  0  0  0  0  0  0  0  0
    3.9195   -4.6597    0.0000 C   0  0  0  0  0  0  0  0  0  0  0  0
    4.7296   -4.8156    0.0000 C   0  0  0  0  0  0  0  0  0  0  0  0
    5.2697   -4.1920    0.0000 O   0  0  0  0  0  0  0  0  0  0  0  0
    6.0798   -4.3479    0.0000 C   0  0  0  0  0  0  0  0  0  0  0  0
    6.6199   -3.7242    0.0000 C   0  0  0  0  0  0  0  0  0  0  0  0
    7.4300   -3.8801    0.0000 C   0  0  0  0  0  0  0  0  0  0  0  0
    7.9701   -3.2565    0.0000 C   0  0  0  0  0  0  0  0  0  0  0  0
    2.8393   -1.5415    0.0000 N   0  0  0  0  0  0  0  0  0  0  0  0
    3.3112   -0.8648    0.0000 C   0  0  0  0  0  0  0  0  0  0  0  0
    4.1361   -0.8489    0.0000 O   0  0  0  0  0  0  0  0  0  0  0  0
    2.8135   -0.2069    0.0000 C   0  0  0  0  0  0  0  0  0  0  0  0
    3.5199    0.2194    0.0000 C   0  0  0  0  0  0  0  0  0  0  0  0
    2.4635    0.5402    0.0000 C   0  0  0  0  0  0  0  0  0  0  0  0
    2.0340   -0.4769    0.0000 O   0  0  0  0  0  0  0  0  0  0  0  0
    2.0499   -1.3018    0.0000 C   0  0  0  0  0  0  0  0  0  0  0  0
    1.3919   -1.7995    0.0000 O   0  0  0  0  0  0  0  0  0  0  0  0
    0.4089   -3.2565    0.0000 C   0  0  0  0  0  0  0  0  0  0  0  0
    0.1388   -2.4770    0.0000 S   0  0  0  0  0  0  0  0  0  0  0  0
   -0.6713   -2.3210    0.0000 C   0  0  0  0  0  0  0  0  0  0  0  0
   -1.2114   -2.9447    0.0000 C   0  0  0  0  0  0  0  0  0  0  0  0
   -2.0215   -2.7888    0.0000 C   0  0  0  0  0  0  0  0  0  0  0  0
   -2.5616   -3.4124    0.0000 C   0  0  0  0  0  0  0  0  0  0  0  0
   -3.3717   -3.2565    0.0000 C   0  0  0  0  0  0  0  0  0  0  0  0
   -3.9118   -3.8801    0.0000 C   0  0  0  0  0  0  0  0  0  0  0  0
   -0.9413   -3.7242    0.0000 C   0  0  0  0  0  0  0  0  0  0  0  0
   -1.4814   -4.3479    0.0000 C   0  0  0  0  0  0  0  0  0  0  0  0
   -0.1312   -3.8801    0.0000 C   0  0  0  0  0  0  0  0  0  0  0  0
    0.1388   -4.6597    0.0000 C   0  0  0  0  0  0  0  0  0  0  0  0
  1  2  1  0  0  0  0
  2  3  1  0  0  0  0
  2  4  1  0  0  0  0
  2  5  1  0  0  0  0
  6  5  1  0  0  0  0
  7  6  2  0  0  0  0
  7  8  1  0  0  0  0
  8  9  1  0  0  0  0
  9 10  2  0  0  0  0
  9 11  1  0  0  0  0
 11 12  1  0  0  0  0
 13 12  2  0  0  0  0
 14 13  1  0  0  0  0
 14 15  2  0  0  0  0
 15 16  1  0  0  0  0
 16 17  2  0  0  0  0
 17 18  1  0  0  0  0
 18 19  2  0  0  0  0
 19 14  1  0  0  0  0
 20 19  1  0  0  0  0
 20 21  2  0  0  0  0
 20 22  2  0  0  0  0
 23 20  1  0  0  0  0
 12 23  1  0  0  0  0
 23 24  1  0  0  0  0
 24 25  1  0  0  0  0
 25 26  1  0  0  0  0
 26 27  1  0  0  0  0
 27 28  1  0  0  0  0
 28 29  1  0  0  0  0
 29 30  1  0  0  0  0
 30 31  1  0  0  0  0
 11 32  1  0  0  0  0
 33 32  1  0  0  0  0
 33 34  2  0  0  0  0
 35 33  1  0  0  0  0
 35 36  1  0  0  0  0
 35 37  1  0  0  0  0
 38 35  1  0  0  0  0
 39 38  1  0  0  0  0
 32 39  1  0  0  0  0
 39 40  2  0  0  0  0
 41  7  1  0  0  0  0
 41 42  1  0  0  0  0
 42 43  1  0  0  0  0
 43 44  1  0  0  0  0
 44 45  1  0  0  0  0
 45 46  1  0  0  0  0
 46 47  1  0  0  0  0
 47 48  1  0  0  0  0
 44 49  1  0  0  0  0
 49 50  1  0  0  0  0
 51 41  2  0  0  0  0
 52 51  1  0  0  0  0
  5 52  2  0  0  0  0
M  END
> <RowID>
548

> <Original_SMILES>
CC(C)(C)C1C=C(NC(=O)C(C2=NC3=CC=CC=C3S(=O)(=O)N2CCCOCCCC)N2C(=O)C(C)(C)OC2=O)C(=CC=1)SCC(CCCC)CC

> <Canonical_QSARr>
CC(C)(C)C1C=C(NC(=O)C(C2=NC3=CC=CC=C3S(=O)(=O)N2CCCOCCCC)N2C(=O)C(C)(C)OC2=O)C(=CC=1)SCC(CCCC)CC

> <InChI_Code_QSARr>
InChI=1S/C39H56N4O7S2/c1-9-12-17-27(11-3)26-51-31-21-20-28(38(4,5)6)25-30(31)41-35(44)33(43-36(45)39(7,8)50-37(43)46)34-40-29-18-14-15-19-32(29)52(47,48)42(34)22-16-24-49-23-13-10-2/h14-15,18-21,25,27,33H,9-13,16-17,22-24,26H2,1-8H3,(H,41,44)

> <InChI Key_QSARr>
SSRJGKMKYHSHRV-UHFFFAOYSA-N

> <Salt_Solvent>


> <Salt_Solvent_ID>
0

> <Number of connected components>
1

$$$$
Molecule_549
  Mrv2316 01072400032D          

 26 27  0  0  0  0            999 V2000
    2.3642    3.2956    0.0000 C   0  0  0  0  0  0  0  0  0  0  0  0
    2.0821    2.5204    0.0000 C   0  0  0  0  0  0  0  0  0  0  0  0
    2.8945    2.3771    0.0000 C   0  0  0  0  0  0  0  0  0  0  0  0
    1.3676    2.9329    0.0000 C   0  0  0  0  0  0  0  0  0  0  0  0
    0.6531    2.5204    0.0000 C   0  0  0  0  0  0  0  0  0  0  0  0
   -0.1315    2.7753    0.0000 O   0  0  0  0  0  0  0  0  0  0  0  0
   -0.6164    2.1079    0.0000 C   0  0  0  0  0  0  0  0  0  0  0  0
   -1.4414    2.1079    0.0000 C   0  0  0  0  0  0  0  0  0  0  0  0
   -0.1315    1.4404    0.0000 O   0  0  0  0  0  0  0  0  0  0  0  0
    0.6531    1.6954    0.0000 C   0  0  0  0  0  0  0  0  0  0  0  0
    1.3676    1.2829    0.0000 C   0  0  0  0  0  0  0  0  0  0  0  0
    1.3676    0.4579    0.0000 C   0  0  0  0  0  0  0  0  0  0  0  0
    2.0821    1.6954    0.0000 C   0  0  0  0  0  0  0  0  0  0  0  0
    2.5193    0.9957    0.0000 O   0  0  0  0  0  0  0  0  0  0  0  0
    2.9066    1.6666    0.0000 C   0  0  0  0  0  0  0  0  0  0  0  0
    3.7311    1.6378    0.0000 C   0  0  0  0  0  0  0  0  0  0  0  0
    4.5556    1.6090    0.0000 C   0  0  0  0  0  0  0  0  0  0  0  0
    4.5268    0.7845    0.0000 C   0  0  0  0  0  0  0  0  0  0  0  0
    4.5844    2.4335    0.0000 C   0  0  0  0  0  0  0  0  0  0  0  0
    5.3128    2.8208    0.0000 C   0  0  0  0  0  0  0  0  0  0  0  0
    5.3801    1.5802    0.0000 O   0  0  0  0  0  0  0  0  0  0  0  0
    5.7674    0.8518    0.0000 C   0  0  0  0  0  0  0  0  0  0  0  0
    5.3302    0.1521    0.0000 C   0  0  0  0  0  0  0  0  0  0  0  0
    6.5919    0.8230    0.0000 O   0  0  0  0  0  0  0  0  0  0  0  0
    6.9792    0.0946    0.0000 C   0  0  0  0  0  0  0  0  0  0  0  0
    7.8037    0.0658    0.0000 C   0  0  0  0  0  0  0  0  0  0  0  0
  1  2  1  0  0  0  0
  2  3  1  0  0  0  0
  4  2  1  0  0  0  0
  5  4  1  0  0  0  0
  5  6  1  0  0  0  0
  6  7  1  0  0  0  0
  7  8  1  0  0  0  0
  7  9  1  0  0  0  0
  9 10  1  0  0  0  0
 10  5  1  0  0  0  0
 11 10  2  0  0  0  0
 11 12  1  0  0  0  0
 13 11  1  0  0  0  0
  2 13  1  0  0  0  0
 13 14  1  0  0  0  0
 13 15  1  0  0  0  0
 15 16  3  0  0  0  0
 16 17  1  0  0  0  0
 17 18  1  0  0  0  0
 17 19  1  0  0  0  0
 19 20  2  0  0  0  0
 17 21  1  0  0  0  0
 21 22  1  0  0  0  0
 22 23  1  0  0  0  0
 22 24  1  0  0  0  0
 24 25  1  0  0  0  0
 25 26  1  0  0  0  0
M  END
> <RowID>
549

> <Original_SMILES>
CC1(C)CC2OC(C)OC2=C(C)C1(O)C#CC(C)(C=C)OC(C)OCC

> <Canonical_QSARr>
CC1(C)CC2OC(C)OC2=C(C)C1(O)C#CC(C)(C=C)OC(C)OCC

> <InChI_Code_QSARr>
InChI=1S/C21H32O5/c1-9-20(8,26-15(4)23-10-2)11-12-21(22)14(3)18-17(13-19(21,6)7)24-16(5)25-18/h9,15-17,22H,1,10,13H2,2-8H3

> <InChI Key_QSARr>
RZEIWRMMULENKX-UHFFFAOYSA-N

> <Salt_Solvent>


> <Salt_Solvent_ID>
0

> <Number of connected components>
1

$$$$
Molecule_550
  Mrv2316 01072400032D          

 20 19  0  0  0  0            999 V2000
    3.4914   -1.7605    0.0000 C   0  0  0  0  0  0  0  0  0  0  0  0
    2.6664   -1.7605    0.0000 C   0  0  0  0  0  0  0  0  0  0  0  0
    1.8414   -1.7605    0.0000 C   0  0  0  0  0  0  0  0  0  0  0  0
    2.6664   -2.5855    0.0000 C   0  0  0  0  0  0  0  0  0  0  0  0
    3.3809   -2.9980    0.0000 C   0  0  0  0  0  0  0  0  0  0  0  0
    3.3809   -3.8230    0.0000 C   0  0  0  0  0  0  0  0  0  0  0  0
    4.0954   -2.5855    0.0000 O   0  0  0  0  0  0  0  0  0  0  0  0
    2.6664   -0.9355    0.0000 O   0  0  0  0  0  0  0  0  0  0  0  0
    1.9520   -0.5230    0.0000 O   0  0  0  0  0  0  0  0  0  0  0  0
    1.9520    0.3020    0.0000 C   0  0  0  0  0  0  0  0  0  0  0  0
    2.6664    0.7145    0.0000 O   0  0  0  0  0  0  0  0  0  0  0  0
    1.2375    0.7145    0.0000 C   0  0  0  0  0  0  0  0  0  0  0  0
    1.6500    1.4290    0.0000 C   0  0  0  0  0  0  0  0  0  0  0  0
    0.5230    1.1270    0.0000 C   0  0  0  0  0  0  0  0  0  0  0  0
    0.5230    1.9520    0.0000 C   0  0  0  0  0  0  0  0  0  0  0  0
   -0.1915    2.3645    0.0000 C   0  0  0  0  0  0  0  0  0  0  0  0
   -0.1915    3.1895    0.0000 C   0  0  0  0  0  0  0  0  0  0  0  0
   -0.9059    3.6020    0.0000 C   0  0  0  0  0  0  0  0  0  0  0  0
    0.8250    0.0000    0.0000 C   0  0  0  0  0  0  0  0  0  0  0  0
   -0.0000    0.0000    0.0000 C   0  0  0  0  0  0  0  0  0  0  0  0
  1  2  1  0  0  0  0
  2  3  1  0  0  0  0
  2  4  1  0  0  0  0
  4  5  1  0  0  0  0
  5  6  1  0  0  0  0
  5  7  1  0  0  0  0
  2  8  1  0  0  0  0
  8  9  1  0  0  0  0
  9 10  1  0  0  0  0
 10 11  2  0  0  0  0
 10 12  1  0  0  0  0
 12 13  1  0  0  0  0
 12 14  1  0  0  0  0
 14 15  1  0  0  0  0
 15 16  1  0  0  0  0
 16 17  1  0  0  0  0
 17 18  1  0  0  0  0
 12 19  1  0  0  0  0
 19 20  1  0  0  0  0
M  END
> <RowID>
550

> <Original_SMILES>
CC(C)(CC(C)O)OOC(=O)C(C)(CCCCC)CC

> <Canonical_QSARr>
CC(C)(CC(C)O)OOC(=O)C(C)(CCCCC)CC

> <InChI_Code_QSARr>
InChI=1S/C16H32O4/c1-7-9-10-11-16(6,8-2)14(18)19-20-15(4,5)12-13(3)17/h13,17H,7-12H2,1-6H3

> <InChI Key_QSARr>
QEJOULIGQWLKDG-UHFFFAOYSA-N

> <Salt_Solvent>


> <Salt_Solvent_ID>
0

> <Number of connected components>
1

$$$$
Molecule_551
  Mrv2316 01072400032D          

 17 18  0  0  0  0            999 V2000
    4.1607   -4.7316    0.0000 C   0  0  0  0  0  0  0  0  0  0  0  0
    4.1607   -3.9066    0.0000 O   0  0  0  0  0  0  0  0  0  0  0  0
    3.4463   -3.4941    0.0000 C   0  0  0  0  0  0  0  0  0  0  0  0
    3.4463   -2.6691    0.0000 C   0  0  0  0  0  0  0  0  0  0  0  0
    2.7318   -2.2566    0.0000 C   0  0  0  0  0  0  0  0  0  0  0  0
    2.7318   -1.4316    0.0000 O   0  0  0  0  0  0  0  0  0  0  0  0
    2.0173   -2.6691    0.0000 C   0  0  0  0  0  0  0  0  0  0  0  0
    1.3029   -2.2566    0.0000 C   0  0  0  0  0  0  0  0  0  0  0  0
    1.3029   -1.4316    0.0000 O   0  0  0  0  0  0  0  0  0  0  0  0
    0.5884   -2.6691    0.0000 C   0  0  0  0  0  0  0  0  0  0  0  0
   -0.1261   -2.2566    0.0000 C   0  0  0  0  0  0  0  0  0  0  0  0
   -0.8406   -2.6691    0.0000 C   0  0  0  0  0  0  0  0  0  0  0  0
   -0.8406   -3.4941    0.0000 C   0  0  0  0  0  0  0  0  0  0  0  0
   -0.1261   -3.9066    0.0000 C   0  0  0  0  0  0  0  0  0  0  0  0
    0.5884   -3.4941    0.0000 C   0  0  0  0  0  0  0  0  0  0  0  0
    2.0173   -3.4941    0.0000 C   0  0  0  0  0  0  0  0  0  0  0  0
    2.7318   -3.9066    0.0000 C   0  0  0  0  0  0  0  0  0  0  0  0
  1  2  1  0  0  0  0
  2  3  1  0  0  0  0
  4  3  1  0  0  0  0
  5  4  2  0  0  0  0
  5  6  1  0  0  0  0
  7  5  1  0  0  0  0
  7  8  1  0  0  0  0
  8  9  2  0  0  0  0
  8 10  1  0  0  0  0
 11 10  1  0  0  0  0
 12 11  2  0  0  0  0
 13 12  1  0  0  0  0
 14 13  2  0  0  0  0
 15 14  1  0  0  0  0
 10 15  2  0  0  0  0
 16  7  2  0  0  0  0
 17 16  1  0  0  0  0
  3 17  2  0  0  0  0
M  END
> <RowID>
551

> <Original_SMILES>
COC1C=C(O)C(=CC=1)C(=O)C1C=CC=CC=1

> <Canonical_QSARr>
COC1C=C(O)C(=CC=1)C(=O)C1C=CC=CC=1

> <InChI_Code_QSARr>
InChI=1S/C14H12O3/c1-17-11-7-8-12(13(15)9-11)14(16)10-5-3-2-4-6-10/h2-9,15H,1H3

> <InChI Key_QSARr>
DXGLGDHPHMLXJC-UHFFFAOYSA-N

> <Salt_Solvent>


> <Salt_Solvent_ID>
0

> <Number of connected components>
1

$$$$
Molecule_552
  Mrv2316 01072400032D          

 28 31  0  0  0  0            999 V2000
    6.9960   -2.0886    0.0000 C   0  0  0  0  0  0  0  0  0  0  0  0
    7.7104   -2.5011    0.0000 C   0  0  0  0  0  0  0  0  0  0  0  0
    7.7104   -3.3261    0.0000 C   0  0  0  0  0  0  0  0  0  0  0  0
    8.4249   -2.0886    0.0000 C   0  0  0  0  0  0  0  0  0  0  0  0
    9.1394   -2.5011    0.0000 C   0  0  0  0  0  0  0  0  0  0  0  0
    9.8538   -2.0886    0.0000 C   0  0  0  0  0  0  0  0  0  0  0  0
   10.5683   -2.5011    0.0000 C   0  0  0  0  0  0  0  0  0  0  0  0
   10.5683   -3.3261    0.0000 C   0  0  0  0  0  0  0  0  0  0  0  0
   11.2828   -2.0886    0.0000 C   0  0  0  0  0  0  0  0  0  0  0  0
   11.3690   -1.2681    0.0000 C   0  0  0  0  0  0  0  0  0  0  0  0
   12.1760   -1.0966    0.0000 C   0  0  0  0  0  0  0  0  0  0  0  0
   12.5885   -1.8111    0.0000 C   0  0  0  0  0  0  0  0  0  0  0  0
   13.3955   -1.9826    0.0000 C   0  0  0  0  0  0  0  0  0  0  0  0
   13.9475   -1.3695    0.0000 C   0  0  0  0  0  0  0  0  0  0  0  0
   14.7545   -1.5410    0.0000 C   0  0  0  0  0  0  0  0  0  0  0  0
   15.0094   -2.3257    0.0000 C   0  0  0  0  0  0  0  0  0  0  0  0
   15.8164   -2.4972    0.0000 C   0  0  0  0  0  0  0  0  0  0  0  0
   16.0713   -3.2818    0.0000 C   0  0  0  0  0  0  0  0  0  0  0  0
   16.8783   -3.4533    0.0000 O   0  0  0  0  0  0  0  0  0  0  0  0
   15.5193   -3.8949    0.0000 C   0  0  0  0  0  0  0  0  0  0  0  0
   14.7123   -3.7234    0.0000 C   0  0  0  0  0  0  0  0  0  0  0  0
   14.4574   -2.9388    0.0000 C   0  0  0  0  0  0  0  0  0  0  0  0
   13.9053   -3.5519    0.0000 C   0  0  0  0  0  0  0  0  0  0  0  0
   13.6504   -2.7672    0.0000 C   0  0  0  0  0  0  0  0  0  0  0  0
   13.0984   -3.3803    0.0000 C   0  0  0  0  0  0  0  0  0  0  0  0
   12.2914   -3.2088    0.0000 C   0  0  0  0  0  0  0  0  0  0  0  0
   12.0365   -2.4242    0.0000 C   0  0  0  0  0  0  0  0  0  0  0  0
   11.4234   -2.9762    0.0000 C   0  0  0  0  0  0  0  0  0  0  0  0
  1  2  1  0  0  0  0
  2  3  1  0  0  0  0
  2  4  1  0  0  0  0
  4  5  1  0  0  0  0
  5  6  1  0  0  0  0
  6  7  1  0  0  0  0
  7  8  1  0  0  0  0
  7  9  1  0  0  0  0
 10  9  1  0  0  0  0
 11 10  1  0  0  0  0
 12 11  1  0  0  0  0
 12 13  1  0  0  0  0
 14 13  1  0  0  0  0
 15 14  1  0  0  0  0
 16 15  2  0  0  0  0
 16 17  1  0  0  0  0
 17 18  1  0  0  0  0
 18 19  1  0  0  0  0
 18 20  1  0  0  0  0
 20 21  1  0  0  0  0
 21 22  1  0  0  0  0
 22 16  1  0  0  0  0
 22 23  1  0  0  0  0
 24 22  1  0  0  0  0
 13 24  1  0  0  0  0
 24 25  1  0  0  0  0
 25 26  1  0  0  0  0
 26 27  1  0  0  0  0
  9 27  1  0  0  0  0
 27 12  1  0  0  0  0
 27 28  1  0  0  0  0
M  END
> <RowID>
552

> <Original_SMILES>
CC(C)CCCC(C)C1CCC2C3CC=C4CC(O)CCC4(C)C3CCC12C

> <Canonical_QSARr>
CC(C)CCCC(C)C1CCC2C3CC=C4CC(O)CCC4(C)C3CCC12C

> <InChI_Code_QSARr>
InChI=1S/C27H46O/c1-18(2)7-6-8-19(3)23-11-12-24-22-10-9-20-17-21(28)13-15-26(20,4)25(22)14-16-27(23,24)5/h9,18-19,21-25,28H,6-8,10-17H2,1-5H3

> <InChI Key_QSARr>
HVYWMOMLDIMFJA-UHFFFAOYSA-N

> <Salt_Solvent>


> <Salt_Solvent_ID>
0

> <Number of connected components>
1

$$$$
Molecule_553
  Mrv2316 01072400032D          

 32 32  0  0  0  0            999 V2000
   -7.4200    1.3019    0.0000 C   0  0  0  0  0  0  0  0  0  0  0  0
   -6.7056    1.7144    0.0000 C   0  0  0  0  0  0  0  0  0  0  0  0
   -5.9911    1.3019    0.0000 C   0  0  0  0  0  0  0  0  0  0  0  0
   -5.2766    1.7144    0.0000 C   0  0  0  0  0  0  0  0  0  0  0  0
   -4.5622    1.3019    0.0000 C   0  0  0  0  0  0  0  0  0  0  0  0
   -3.8477    1.7144    0.0000 C   0  0  0  0  0  0  0  0  0  0  0  0
   -3.1332    1.3019    0.0000 C   0  0  0  0  0  0  0  0  0  0  0  0
   -2.4187    1.7144    0.0000 C   0  0  0  0  0  0  0  0  0  0  0  0
   -1.7043    1.3019    0.0000 C   0  0  0  0  0  0  0  0  0  0  0  0
   -1.2918    0.5874    0.0000 O   0  0  0  0  0  0  0  0  0  0  0  0
   -0.8793    1.3019    0.0000 C   0  0  0  0  0  0  0  0  0  0  0  0
   -0.1648    1.7144    0.0000 C   0  0  0  0  0  0  0  0  0  0  0  0
    0.5497    1.3019    0.0000 C   0  0  0  0  0  0  0  0  0  0  0  0
    1.2641    1.7144    0.0000 C   0  0  0  0  0  0  0  0  0  0  0  0
    1.9786    1.3019    0.0000 C   0  0  0  0  0  0  0  0  0  0  0  0
    2.6931    1.7144    0.0000 C   0  0  0  0  0  0  0  0  0  0  0  0
    3.4076    1.3019    0.0000 C   0  0  0  0  0  0  0  0  0  0  0  0
    4.1220    1.7144    0.0000 C   0  0  0  0  0  0  0  0  0  0  0  0
    4.8365    1.3019    0.0000 C   0  0  0  0  0  0  0  0  0  0  0  0
    4.8365    0.4769    0.0000 O   0  0  0  0  0  0  0  0  0  0  0  0
    5.5510    1.7144    0.0000 O   0  0  0  0  0  0  0  0  0  0  0  0
    6.2654    1.3019    0.0000 C   0  0  0  0  0  0  0  0  0  0  0  0
    6.9799    1.7144    0.0000 C   0  0  0  0  0  0  0  0  0  0  0  0
    7.6944    1.3019    0.0000 C   0  0  0  0  0  0  0  0  0  0  0  0
    8.4089    1.7144    0.0000 O   0  0  0  0  0  0  0  0  0  0  0  0
    9.1233    1.3019    0.0000 C   0  0  0  0  0  0  0  0  0  0  0  0
    9.8378    1.7144    0.0000 C   0  0  0  0  0  0  0  0  0  0  0  0
    9.1233    0.4769    0.0000 O   0  0  0  0  0  0  0  0  0  0  0  0
    6.9799    2.5394    0.0000 O   0  0  0  0  0  0  0  0  0  0  0  0
    6.2654    2.9519    0.0000 C   0  0  0  0  0  0  0  0  0  0  0  0
    5.5510    2.5394    0.0000 C   0  0  0  0  0  0  0  0  0  0  0  0
    6.2654    3.7769    0.0000 O   0  0  0  0  0  0  0  0  0  0  0  0
  1  2  1  0  0  0  0
  2  3  1  0  0  0  0
  3  4  1  0  0  0  0
  4  5  1  0  0  0  0
  5  6  1  0  0  0  0
  6  7  1  0  0  0  0
  7  8  1  0  0  0  0
  8  9  1  0  0  0  0
 10  9  1  0  0  0  0
 11 10  1  0  0  0  0
  9 11  1  0  0  0  0
 11 12  1  0  0  0  0
 12 13  1  0  0  0  0
 13 14  1  0  0  0  0
 14 15  1  0  0  0  0
 15 16  1  0  0  0  0
 16 17  1  0  0  0  0
 17 18  1  0  0  0  0
 18 19  1  0  0  0  0
 19 20  2  0  0  0  0
 19 21  1  0  0  0  0
 21 22  1  0  0  0  0
 22 23  1  0  0  0  0
 23 24  1  0  0  0  0
 24 25  1  0  0  0  0
 25 26  1  0  0  0  0
 26 27  1  0  0  0  0
 26 28  2  0  0  0  0
 23 29  1  0  0  0  0
 29 30  1  0  0  0  0
 30 31  1  0  0  0  0
 30 32  2  0  0  0  0
M  END
> <RowID>
553

> <Original_SMILES>
CCCCCCCCC1OC1CCCCCCCC(=O)OCC(COC(C)=O)OC(C)=O

> <Canonical_QSARr>
CCCCCCCCC1OC1CCCCCCCC(=O)OCC(COC(C)=O)OC(C)=O

> <InChI_Code_QSARr>
InChI=1S/C25H44O7/c1-4-5-6-7-9-12-15-23-24(32-23)16-13-10-8-11-14-17-25(28)30-19-22(31-21(3)27)18-29-20(2)26/h22-24H,4-19H2,1-3H3

> <InChI Key_QSARr>
SOBPBYLGGPYGKR-UHFFFAOYSA-N

> <Salt_Solvent>


> <Salt_Solvent_ID>
0

> <Number of connected components>
1

$$$$
Molecule_554
  Mrv2316 01072400032D          

 41 44  0  0  0  0            999 V2000
    2.8231  -11.6104    0.0000 C   0  0  0  0  0  0  0  0  0  0  0  0
    3.5375  -11.1979    0.0000 C   0  0  0  0  0  0  0  0  0  0  0  0
    3.5375  -10.3729    0.0000 O   0  0  0  0  0  0  0  0  0  0  0  0
    4.2520   -9.9604    0.0000 C   0  0  0  0  0  0  0  0  0  0  0  0
    4.2520   -9.1354    0.0000 O   0  0  0  0  0  0  0  0  0  0  0  0
    3.5375   -8.7229    0.0000 C   0  0  0  0  0  0  0  0  0  0  0  0
    3.5375   -7.8979    0.0000 C   0  0  0  0  0  0  0  0  0  0  0  0
    4.2520   -7.4854    0.0000 O   0  0  0  0  0  0  0  0  0  0  0  0
    4.2520   -6.6604    0.0000 C   0  0  0  0  0  0  0  0  0  0  0  0
    4.9665   -6.2479    0.0000 C   0  0  0  0  0  0  0  0  0  0  0  0
    4.9665   -5.4229    0.0000 C   0  0  0  0  0  0  0  0  0  0  0  0
    5.6809   -5.0104    0.0000 O   0  0  0  0  0  0  0  0  0  0  0  0
    4.2520   -5.0104    0.0000 C   0  0  0  0  0  0  0  0  0  0  0  0
    4.2520   -4.1854    0.0000 C   0  0  0  0  0  0  0  0  0  0  0  0
    4.9665   -3.7729    0.0000 O   0  0  0  0  0  0  0  0  0  0  0  0
    3.5375   -3.7729    0.0000 C   0  0  0  0  0  0  0  0  0  0  0  0
    3.5375   -2.9479    0.0000 C   0  0  0  0  0  0  0  0  0  0  0  0
    2.8231   -2.5354    0.0000 C   0  0  0  0  0  0  0  0  0  0  0  0
    2.8231   -1.7104    0.0000 C   0  0  0  0  0  0  0  0  0  0  0  0
    2.1086   -1.2979    0.0000 C   0  0  0  0  0  0  0  0  0  0  0  0
    1.3941   -1.7104    0.0000 C   0  0  0  0  0  0  0  0  0  0  0  0
    0.6796   -1.2979    0.0000 O   0  0  0  0  0  0  0  0  0  0  0  0
    1.3941   -2.5354    0.0000 C   0  0  0  0  0  0  0  0  0  0  0  0
    2.1086   -2.9479    0.0000 C   0  0  0  0  0  0  0  0  0  0  0  0
    3.5375   -5.4229    0.0000 C   0  0  0  0  0  0  0  0  0  0  0  0
    2.8231   -5.0104    0.0000 O   0  0  0  0  0  0  0  0  0  0  0  0
    3.5375   -6.2479    0.0000 C   0  0  0  0  0  0  0  0  0  0  0  0
    2.8231   -7.4854    0.0000 O   0  0  0  0  0  0  0  0  0  0  0  0
    2.1086   -7.8979    0.0000 C   0  0  0  0  0  0  0  0  0  0  0  0
    1.3941   -7.4854    0.0000 C   0  0  0  0  0  0  0  0  0  0  0  0
    0.6796   -7.8979    0.0000 O   0  0  0  0  0  0  0  0  0  0  0  0
    2.1086   -8.7229    0.0000 C   0  0  0  0  0  0  0  0  0  0  0  0
    1.3941   -9.1354    0.0000 O   0  0  0  0  0  0  0  0  0  0  0  0
    2.8231   -9.1354    0.0000 C   0  0  0  0  0  0  0  0  0  0  0  0
    2.8231   -9.9604    0.0000 O   0  0  0  0  0  0  0  0  0  0  0  0
    4.9665  -10.3729    0.0000 C   0  0  0  0  0  0  0  0  0  0  0  0
    5.6809   -9.9604    0.0000 O   0  0  0  0  0  0  0  0  0  0  0  0
    4.9665  -11.1979    0.0000 C   0  0  0  0  0  0  0  0  0  0  0  0
    5.6809  -11.6104    0.0000 O   0  0  0  0  0  0  0  0  0  0  0  0
    4.2520  -11.6104    0.0000 C   0  0  0  0  0  0  0  0  0  0  0  0
    4.2520  -12.4354    0.0000 O   0  0  0  0  0  0  0  0  0  0  0  0
  1  2  1  0  0  0  0
  3  2  1  0  0  0  0
  4  3  1  0  0  0  0
  4  5  1  0  0  0  0
  5  6  1  0  0  0  0
  7  6  1  0  0  0  0
  7  8  1  0  0  0  0
  8  9  1  0  0  0  0
 10  9  2  0  0  0  0
 11 10  1  0  0  0  0
 11 12  1  0  0  0  0
 13 11  2  0  0  0  0
 13 14  1  0  0  0  0
 14 15  2  0  0  0  0
 14 16  1  0  0  0  0
 16 17  1  0  0  0  0
 17 18  1  0  0  0  0
 19 18  1  0  0  0  0
 20 19  2  0  0  0  0
 21 20  1  0  0  0  0
 21 22  1  0  0  0  0
 23 21  2  0  0  0  0
 24 23  1  0  0  0  0
 18 24  2  0  0  0  0
 25 13  1  0  0  0  0
 25 26  1  0  0  0  0
 27 25  2  0  0  0  0
  9 27  1  0  0  0  0
 28  7  1  0  0  0  0
 29 28  1  0  0  0  0
 29 30  1  0  0  0  0
 30 31  1  0  0  0  0
 32 29  1  0  0  0  0
 32 33  1  0  0  0  0
 34 32  1  0  0  0  0
  6 34  1  0  0  0  0
 34 35  1  0  0  0  0
 36  4  1  0  0  0  0
 36 37  1  0  0  0  0
 38 36  1  0  0  0  0
 38 39  1  0  0  0  0
 40 38  1  0  0  0  0
  2 40  1  0  0  0  0
 40 41  1  0  0  0  0
M  END
> <RowID>
554

> <Original_SMILES>
CC1OC(OC2C(OC(CO)C(O)C2O)OC2=CC(O)=C(C(=O)CCC3C=CC(O)=CC=3)C(O)=C2)C(O)C(O)C1O

> <Canonical_QSARr>
CC1OC(OC2C(OC(CO)C(O)C2O)OC2=CC(O)=C(C(=O)CCC3C=CC(O)=CC=3)C(O)=C2)C(O)C(O)C1O

> <InChI_Code_QSARr>
InChI=1S/C27H34O14/c1-11-20(33)22(35)24(37)26(38-11)41-25-23(36)21(34)18(10-28)40-27(25)39-14-8-16(31)19(17(32)9-14)15(30)7-4-12-2-5-13(29)6-3-12/h2-3,5-6,8-9,11,18,20-29,31-37H,4,7,10H2,1H3

> <InChI Key_QSARr>
CWBZAESOUBENAP-UHFFFAOYSA-N

> <Salt_Solvent>


> <Salt_Solvent_ID>
0

> <Number of connected components>
1

$$$$
Molecule_555
  Mrv2316 01072400032D          

 29 28  0  0  0  0            999 V2000
    2.9684   -0.4125    0.0000 O   0  0  0  0  0  0  0  0  0  0  0  0
    3.3809    0.3020    0.0000 P   0  0  0  0  0  0  0  0  0  0  0  0
    4.0954   -0.1105    0.0000 O   0  0  0  0  0  0  0  0  0  0  0  0
    4.8099    0.3020    0.0000 C   0  0  0  0  0  0  0  0  0  0  0  0
    5.5243   -0.1105    0.0000 C   0  0  0  0  0  0  0  0  0  0  0  0
    6.2388    0.3020    0.0000 Cl  0  0  0  0  0  0  0  0  0  0  0  0
    3.7934    1.0164    0.0000 O   0  0  0  0  0  0  0  0  0  0  0  0
    4.6184    1.0164    0.0000 C   0  0  0  0  0  0  0  0  0  0  0  0
    5.0309    1.7309    0.0000 C   0  0  0  0  0  0  0  0  0  0  0  0
    5.8559    1.7309    0.0000 Cl  0  0  0  0  0  0  0  0  0  0  0  0
    2.6665    0.7145    0.0000 O   0  0  0  0  0  0  0  0  0  0  0  0
    1.9520    0.3020    0.0000 C   0  0  0  0  0  0  0  0  0  0  0  0
    1.2375    0.7145    0.0000 C   0  0  0  0  0  0  0  0  0  0  0  0
    0.5230    1.1270    0.0000 C   0  0  0  0  0  0  0  0  0  0  0  0
   -0.1914    0.7145    0.0000 O   0  0  0  0  0  0  0  0  0  0  0  0
   -0.9059    1.1270    0.0000 P   0  0  0  0  0  0  0  0  0  0  0  0
   -0.4934    1.8414    0.0000 O   0  0  0  0  0  0  0  0  0  0  0  0
   -1.6204    1.5395    0.0000 O   0  0  0  0  0  0  0  0  0  0  0  0
   -2.3348    1.1270    0.0000 C   0  0  0  0  0  0  0  0  0  0  0  0
   -3.0493    1.5395    0.0000 C   0  0  0  0  0  0  0  0  0  0  0  0
   -3.7638    1.1270    0.0000 Cl  0  0  0  0  0  0  0  0  0  0  0  0
   -1.3184    0.4125    0.0000 O   0  0  0  0  0  0  0  0  0  0  0  0
   -2.1434    0.4125    0.0000 C   0  0  0  0  0  0  0  0  0  0  0  0
   -2.5559   -0.3020    0.0000 C   0  0  0  0  0  0  0  0  0  0  0  0
   -3.3809   -0.3020    0.0000 Cl  0  0  0  0  0  0  0  0  0  0  0  0
    1.6500    1.4289    0.0000 C   0  0  0  0  0  0  0  0  0  0  0  0
    1.2375    2.1434    0.0000 Cl  0  0  0  0  0  0  0  0  0  0  0  0
    0.8250    0.0000    0.0000 C   0  0  0  0  0  0  0  0  0  0  0  0
    0.0000    0.0000    0.0000 Cl  0  0  0  0  0  0  0  0  0  0  0  0
  1  2  2  0  0  0  0
  2  3  1  0  0  0  0
  3  4  1  0  0  0  0
  4  5  1  0  0  0  0
  5  6  1  0  0  0  0
  2  7  1  0  0  0  0
  7  8  1  0  0  0  0
  8  9  1  0  0  0  0
  9 10  1  0  0  0  0
  2 11  1  0  0  0  0
 11 12  1  0  0  0  0
 12 13  1  0  0  0  0
 13 14  1  0  0  0  0
 14 15  1  0  0  0  0
 15 16  1  0  0  0  0
 16 17  2  0  0  0  0
 16 18  1  0  0  0  0
 18 19  1  0  0  0  0
 19 20  1  0  0  0  0
 20 21  1  0  0  0  0
 16 22  1  0  0  0  0
 22 23  1  0  0  0  0
 23 24  1  0  0  0  0
 24 25  1  0  0  0  0
 13 26  1  0  0  0  0
 26 27  1  0  0  0  0
 13 28  1  0  0  0  0
 28 29  1  0  0  0  0
M  END
> <RowID>
555

> <Original_SMILES>
O=P(OCCCl)(OCCCl)OCC(COP(=O)(OCCCl)OCCCl)(CCl)CCl

> <Canonical_QSARr>
O=P(OCCCl)(OCCCl)OCC(COP(=O)(OCCCl)OCCCl)(CCl)CCl

> <InChI_Code_QSARr>
InChI=1S/C13H24Cl6O8P2/c14-1-5-22-28(20,23-6-2-15)26-11-13(9-18,10-19)12-27-29(21,24-7-3-16)25-8-4-17/h1-12H2

> <InChI Key_QSARr>
ZGHUDSLVQAGWEY-UHFFFAOYSA-N

> <Salt_Solvent>


> <Salt_Solvent_ID>
0

> <Number of connected components>
1

$$$$
Molecule_558
  Mrv2316 01072400032D          

 13 12  0  0  0  0            999 V2000
    1.2375   -0.7145    0.0000 C   0  0  0  0  0  0  0  0  0  0  0  0
    0.8250    0.0000    0.0000 C   0  0  0  0  0  0  0  0  0  0  0  0
    1.2375    0.7145    0.0000 C   0  0  0  0  0  0  0  0  0  0  0  0
    0.8250    1.4289    0.0000 O   0  0  0  0  0  0  0  0  0  0  0  0
    1.2375    2.1434    0.0000 C   0  0  0  0  0  0  0  0  0  0  0  0
    0.8250    2.8579    0.0000 C   0  0  0  0  0  0  0  0  0  0  0  0
    1.2375    3.5724    0.0000 N   0  3  0  0  0  0  0  0  0  0  0  0
    1.6500    4.2868    0.0000 C   0  0  0  0  0  0  0  0  0  0  0  0
    1.2375    5.0013    0.0000 C   0  0  0  0  0  0  0  0  0  0  0  0
    1.9520    3.1599    0.0000 C   0  0  0  0  0  0  0  0  0  0  0  0
    0.5230    3.9849    0.0000 C   0  0  0  0  0  0  0  0  0  0  0  0
    2.0625    0.7145    0.0000 O   0  0  0  0  0  0  0  0  0  0  0  0
   -0.0000    0.0000    0.0000 C   0  0  0  0  0  0  0  0  0  0  0  0
  1  2  1  0  0  0  0
  2  3  1  0  0  0  0
  3  4  1  0  0  0  0
  4  5  1  0  0  0  0
  5  6  1  0  0  0  0
  6  7  1  0  0  0  0
  7  8  1  0  0  0  0
  8  9  1  0  0  0  0
  7 10  1  0  0  0  0
  7 11  1  0  0  0  0
  3 12  2  0  0  0  0
  2 13  2  0  0  0  0
M  CHG  1   7   1
M  END
> <RowID>
558

> <Original_SMILES>
CC(=C)C(=O)OCC[N+](C)(C)CC.CCOS([O-])(=O)=O

> <Canonical_QSARr>
CC(=C)C(=O)OCC[N+](C)(C)CC

> <InChI_Code_QSARr>
InChI=1S/C10H20NO2/c1-6-11(4,5)7-8-13-10(12)9(2)3/h2,6-8H2,1,3-5H3/q+1

> <InChI Key_QSARr>
BETBGSUJVVASHH-UHFFFAOYSA-N

> <Salt_Solvent>
CCOS(=O)(=O)[O-]

> <Salt_Solvent_ID>
2457

> <Number of connected components>
2

$$$$
Molecule_559
  Mrv2316 01072400032D          

 21 23  0  0  0  0            999 V2000
   -0.7825    1.1196    0.0000 C   0  0  0  0  0  0  0  0  0  0  0  0
   -1.4970    0.7071    0.0000 C   0  0  0  0  0  0  0  0  0  0  0  0
   -2.2115    1.1196    0.0000 C   0  0  0  0  0  0  0  0  0  0  0  0
   -2.9259    0.7071    0.0000 C   0  0  0  0  0  0  0  0  0  0  0  0
   -2.9259   -0.1179    0.0000 C   0  0  0  0  0  0  0  0  0  0  0  0
   -2.2115   -0.5304    0.0000 C   0  0  0  0  0  0  0  0  0  0  0  0
   -1.4970   -0.1179    0.0000 C   0  0  0  0  0  0  0  0  0  0  0  0
   -0.7825   -0.5304    0.0000 N   0  0  0  0  0  0  0  0  0  0  0  0
   -0.0680   -0.1179    0.0000 C   0  0  0  0  0  0  0  0  0  0  0  0
   -0.0680    0.7071    0.0000 O   0  0  0  0  0  0  0  0  0  0  0  0
    0.6464   -0.5304    0.0000 C   0  0  0  0  0  0  0  0  0  0  0  0
    1.3609   -0.1179    0.0000 C   0  0  0  0  0  0  0  0  0  0  0  0
    2.0754   -0.5304    0.0000 C   0  0  0  0  0  0  0  0  0  0  0  0
    2.7898   -0.1179    0.0000 C   0  0  0  0  0  0  0  0  0  0  0  0
    3.5043   -0.5304    0.0000 C   0  0  0  0  0  0  0  0  0  0  0  0
    3.5043   -1.3554    0.0000 C   0  0  0  0  0  0  0  0  0  0  0  0
    2.7898   -1.7679    0.0000 C   0  0  0  0  0  0  0  0  0  0  0  0
    2.0754   -1.3554    0.0000 C   0  0  0  0  0  0  0  0  0  0  0  0
    1.3609   -1.7679    0.0000 C   0  0  0  0  0  0  0  0  0  0  0  0
    0.6464   -1.3554    0.0000 C   0  0  0  0  0  0  0  0  0  0  0  0
   -0.0680   -1.7679    0.0000 O   0  0  0  0  0  0  0  0  0  0  0  0
  1  2  1  0  0  0  0
  3  2  1  0  0  0  0
  4  3  2  0  0  0  0
  5  4  1  0  0  0  0
  6  5  2  0  0  0  0
  7  6  1  0  0  0  0
  2  7  2  0  0  0  0
  7  8  1  0  0  0  0
  8  9  1  0  0  0  0
  9 10  2  0  0  0  0
  9 11  1  0  0  0  0
 12 11  1  0  0  0  0
 13 12  2  0  0  0  0
 13 14  1  0  0  0  0
 14 15  2  0  0  0  0
 15 16  1  0  0  0  0
 16 17  2  0  0  0  0
 17 18  1  0  0  0  0
 18 13  1  0  0  0  0
 19 18  2  0  0  0  0
 20 19  1  0  0  0  0
 11 20  2  0  0  0  0
 20 21  1  0  0  0  0
M  END
> <RowID>
559

> <Original_SMILES>
CC1C=CC=CC=1NC(=O)C1C=C2C=CC=CC2=CC=1O

> <Canonical_QSARr>
CC1C=CC=CC=1NC(=O)C1C=C2C=CC=CC2=CC=1O

> <InChI_Code_QSARr>
InChI=1S/C18H15NO2/c1-12-6-2-5-9-16(12)19-18(21)15-10-13-7-3-4-8-14(13)11-17(15)20/h2-11,20H,1H3,(H,19,21)

> <InChI Key_QSARr>
FBLAHUMENIHUGG-UHFFFAOYSA-N

> <Salt_Solvent>


> <Salt_Solvent_ID>
0

> <Number of connected components>
1

$$$$
Molecule_560
  Mrv2316 01072400032D          

 40 42  0  0  0  0            999 V2000
    2.0720   -1.3612    0.0000 C   0  0  0  0  0  0  0  0  0  0  0  0
    2.7864   -1.7737    0.0000 C   0  0  0  0  0  0  0  0  0  0  0  0
    3.5009   -1.3612    0.0000 C   0  0  0  0  0  0  0  0  0  0  0  0
    3.5009   -0.5362    0.0000 C   0  0  0  0  0  0  0  0  0  0  0  0
    4.2154   -0.1237    0.0000 C   0  0  0  0  0  0  0  0  0  0  0  0
    4.2154    0.7013    0.0000 C   0  0  0  0  0  0  0  0  0  0  0  0
    4.9298    1.1138    0.0000 C   0  0  0  0  0  0  0  0  0  0  0  0
    4.9298    1.9388    0.0000 C   0  0  0  0  0  0  0  0  0  0  0  0
    4.9298    2.7638    0.0000 C   0  0  0  0  0  0  0  0  0  0  0  0
    4.1048    1.9388    0.0000 C   0  0  0  0  0  0  0  0  0  0  0  0
    5.7548    1.9388    0.0000 C   0  0  0  0  0  0  0  0  0  0  0  0
    5.6443    0.7013    0.0000 C   0  0  0  0  0  0  0  0  0  0  0  0
    6.3588    1.1138    0.0000 O   0  0  0  0  0  0  0  0  0  0  0  0
    5.6443   -0.1237    0.0000 C   0  0  0  0  0  0  0  0  0  0  0  0
    4.9298   -0.5362    0.0000 C   0  0  0  0  0  0  0  0  0  0  0  0
    4.9298   -1.3612    0.0000 C   0  0  0  0  0  0  0  0  0  0  0  0
    2.7864   -0.1237    0.0000 C   0  0  0  0  0  0  0  0  0  0  0  0
    2.0720   -0.5362    0.0000 C   0  0  0  0  0  0  0  0  0  0  0  0
    1.3575   -0.1237    0.0000 C   0  0  0  0  0  0  0  0  0  0  0  0
    0.6430   -0.5362    0.0000 C   0  0  0  0  0  0  0  0  0  0  0  0
   -0.0715   -0.9487    0.0000 C   0  0  0  0  0  0  0  0  0  0  0  0
    1.0555   -1.2507    0.0000 C   0  0  0  0  0  0  0  0  0  0  0  0
    0.2305    0.1782    0.0000 C   0  0  0  0  0  0  0  0  0  0  0  0
    1.3575    0.7013    0.0000 C   0  0  0  0  0  0  0  0  0  0  0  0
    0.6430    1.1138    0.0000 O   0  0  0  0  0  0  0  0  0  0  0  0
    2.0720    1.1138    0.0000 C   0  0  0  0  0  0  0  0  0  0  0  0
    2.7864    0.7013    0.0000 C   0  0  0  0  0  0  0  0  0  0  0  0
    3.5009    1.1138    0.0000 C   0  0  0  0  0  0  0  0  0  0  0  0
    2.7864   -2.5987    0.0000 C   0  0  0  0  0  0  0  0  0  0  0  0
    2.0720   -3.0112    0.0000 C   0  0  0  0  0  0  0  0  0  0  0  0
    2.0720   -3.8362    0.0000 C   0  0  0  0  0  0  0  0  0  0  0  0
    1.3575   -4.2487    0.0000 C   0  0  0  0  0  0  0  0  0  0  0  0
    0.6430   -4.6612    0.0000 C   0  0  0  0  0  0  0  0  0  0  0  0
    0.9450   -3.5343    0.0000 C   0  0  0  0  0  0  0  0  0  0  0  0
    1.7700   -4.9632    0.0000 C   0  0  0  0  0  0  0  0  0  0  0  0
    2.7864   -4.2487    0.0000 C   0  0  0  0  0  0  0  0  0  0  0  0
    2.7864   -5.0737    0.0000 O   0  0  0  0  0  0  0  0  0  0  0  0
    3.5009   -3.8362    0.0000 C   0  0  0  0  0  0  0  0  0  0  0  0
    3.5009   -3.0112    0.0000 C   0  0  0  0  0  0  0  0  0  0  0  0
    4.2154   -2.5987    0.0000 C   0  0  0  0  0  0  0  0  0  0  0  0
  1  2  1  0  0  0  0
  2  3  1  0  0  0  0
  3  4  1  0  0  0  0
  4  5  1  0  0  0  0
  6  5  2  0  0  0  0
  7  6  1  0  0  0  0
  7  8  1  0  0  0  0
  8  9  1  0  0  0  0
  8 10  1  0  0  0  0
  8 11  1  0  0  0  0
 12  7  2  0  0  0  0
 12 13  1  0  0  0  0
 14 12  1  0  0  0  0
 15 14  2  0  0  0  0
  5 15  1  0  0  0  0
 15 16  1  0  0  0  0
  4 17  1  0  0  0  0
 18 17  2  0  0  0  0
 19 18  1  0  0  0  0
 19 20  1  0  0  0  0
 20 21  1  0  0  0  0
 20 22  1  0  0  0  0
 20 23  1  0  0  0  0
 24 19  2  0  0  0  0
 24 25  1  0  0  0  0
 26 24  1  0  0  0  0
 27 26  2  0  0  0  0
 17 27  1  0  0  0  0
 27 28  1  0  0  0  0
  2 29  1  0  0  0  0
 30 29  2  0  0  0  0
 31 30  1  0  0  0  0
 31 32  1  0  0  0  0
 32 33  1  0  0  0  0
 32 34  1  0  0  0  0
 32 35  1  0  0  0  0
 36 31  2  0  0  0  0
 36 37  1  0  0  0  0
 38 36  1  0  0  0  0
 39 38  2  0  0  0  0
 29 39  1  0  0  0  0
 39 40  1  0  0  0  0
M  END
> <RowID>
560

> <Original_SMILES>
CC(CC(C1=CC(=C(O)C=C1C)C(C)(C)C)C1=CC(=C(O)C=C1C)C(C)(C)C)C1=CC(=C(O)C=C1C)C(C)(C)C

> <Canonical_QSARr>
CC(CC(C1=CC(=C(O)C=C1C)C(C)(C)C)C1=CC(=C(O)C=C1C)C(C)(C)C)C1=CC(=C(O)C=C1C)C(C)(C)C

> <InChI_Code_QSARr>
InChI=1S/C37H52O3/c1-21(25-18-29(35(5,6)7)32(38)15-22(25)2)14-28(26-19-30(36(8,9)10)33(39)16-23(26)3)27-20-31(37(11,12)13)34(40)17-24(27)4/h15-21,28,38-40H,14H2,1-13H3

> <InChI Key_QSARr>
PRWJPWSKLXYEPD-UHFFFAOYSA-N

> <Salt_Solvent>


> <Salt_Solvent_ID>
0

> <Number of connected components>
1

$$$$
Molecule_561
  Mrv2316 01072400032D          

 15 17  0  0  0  0            999 V2000
    0.6058   -0.8898    0.0000 C   0  0  0  0  0  0  0  0  0  0  0  0
   -0.1086   -1.3023    0.0000 C   0  0  0  0  0  0  0  0  0  0  0  0
   -0.1086   -2.1273    0.0000 C   0  0  0  0  0  0  0  0  0  0  0  0
   -0.5211   -2.8418    0.0000 C   0  0  0  0  0  0  0  0  0  0  0  0
    0.3039   -2.8418    0.0000 C   0  0  0  0  0  0  0  0  0  0  0  0
   -0.8231   -0.8898    0.0000 C   0  0  0  0  0  0  0  0  0  0  0  0
   -1.6356   -0.7465    0.0000 C   0  0  0  0  0  0  0  0  0  0  0  0
   -1.3534   -1.5218    0.0000 O   0  0  0  0  0  0  0  0  0  0  0  0
   -0.5409   -0.1145    0.0000 C   0  0  0  0  0  0  0  0  0  0  0  0
    0.2715    0.0287    0.0000 C   0  0  0  0  0  0  0  0  0  0  0  0
    0.5537    0.8040    0.0000 C   0  0  0  0  0  0  0  0  0  0  0  0
    0.0234    1.4360    0.0000 C   0  0  0  0  0  0  0  0  0  0  0  0
    0.3056    2.2112    0.0000 Cl  0  0  0  0  0  0  0  0  0  0  0  0
   -0.7891    1.2927    0.0000 C   0  0  0  0  0  0  0  0  0  0  0  0
   -1.0712    0.5174    0.0000 C   0  0  0  0  0  0  0  0  0  0  0  0
  1  2  1  0  0  0  0
  2  3  1  0  0  0  0
  4  3  1  0  0  0  0
  5  4  1  0  0  0  0
  3  5  1  0  0  0  0
  2  6  1  0  0  0  0
  7  6  1  0  0  0  0
  8  7  1  0  0  0  0
  6  8  1  0  0  0  0
  6  9  1  0  0  0  0
 10  9  1  0  0  0  0
 11 10  2  0  0  0  0
 12 11  1  0  0  0  0
 12 13  1  0  0  0  0
 14 12  2  0  0  0  0
 15 14  1  0  0  0  0
  9 15  2  0  0  0  0
M  END
> <RowID>
561

> <Original_SMILES>
CC(C1CC1)C1(CO1)C1C=CC(Cl)=CC=1

> <Canonical_QSARr>
CC(C1CC1)C1(CO1)C1C=CC(Cl)=CC=1

> <InChI_Code_QSARr>
InChI=1S/C13H15ClO/c1-9(10-2-3-10)13(8-15-13)11-4-6-12(14)7-5-11/h4-7,9-10H,2-3,8H2,1H3

> <InChI Key_QSARr>
QKTOXOPFYCOLPV-UHFFFAOYSA-N

> <Salt_Solvent>


> <Salt_Solvent_ID>
0

> <Number of connected components>
1

$$$$
Molecule_562
  Mrv2316 01072400032D          

 14 14  0  0  0  0            999 V2000
    1.9903   -0.9723    0.0000 C   0  0  0  0  0  0  0  0  0  0  0  0
    1.9903   -0.1473    0.0000 N   0  0  0  0  0  0  0  0  0  0  0  0
    2.7048    0.2652    0.0000 C   0  0  0  0  0  0  0  0  0  0  0  0
    1.2758    0.2652    0.0000 C   0  0  0  0  0  0  0  0  0  0  0  0
    0.5614   -0.1473    0.0000 O   0  0  0  0  0  0  0  0  0  0  0  0
    1.2758    1.0902    0.0000 N   0  0  0  0  0  0  0  0  0  0  0  0
    0.5614    1.5027    0.0000 C   0  0  0  0  0  0  0  0  0  0  0  0
    0.5614    2.3277    0.0000 C   0  0  0  0  0  0  0  0  0  0  0  0
   -0.1531    2.7402    0.0000 C   0  0  0  0  0  0  0  0  0  0  0  0
   -0.1531    3.5652    0.0000 Cl  0  0  0  0  0  0  0  0  0  0  0  0
   -0.8676    2.3277    0.0000 C   0  0  0  0  0  0  0  0  0  0  0  0
   -1.5820    2.7402    0.0000 Cl  0  0  0  0  0  0  0  0  0  0  0  0
   -0.8676    1.5027    0.0000 C   0  0  0  0  0  0  0  0  0  0  0  0
   -0.1531    1.0902    0.0000 C   0  0  0  0  0  0  0  0  0  0  0  0
  1  2  1  0  0  0  0
  2  3  1  0  0  0  0
  2  4  1  0  0  0  0
  4  5  2  0  0  0  0
  4  6  1  0  0  0  0
  6  7  1  0  0  0  0
  8  7  2  0  0  0  0
  9  8  1  0  0  0  0
  9 10  1  0  0  0  0
 11  9  2  0  0  0  0
 11 12  1  0  0  0  0
 13 11  1  0  0  0  0
 14 13  2  0  0  0  0
  7 14  1  0  0  0  0
M  END
> <RowID>
562

> <Original_SMILES>
CN(C)C(=O)NC1=CC(Cl)=C(Cl)C=C1

> <Canonical_QSARr>
CN(C)C(=O)NC1=CC(Cl)=C(Cl)C=C1

> <InChI_Code_QSARr>
InChI=1S/C9H10Cl2N2O/c1-13(2)9(14)12-6-3-4-7(10)8(11)5-6/h3-5H,1-2H3,(H,12,14)

> <InChI Key_QSARr>
XMTQQYYKAHVGBJ-UHFFFAOYSA-N

> <Salt_Solvent>


> <Salt_Solvent_ID>
0

> <Number of connected components>
1

$$$$
Molecule_563
  Mrv2316 01072400032D          

 37 39  0  0  0  0            999 V2000
    2.2013    1.4270    0.0000 N   0  0  0  0  0  0  0  0  0  0  0  0
    2.2013    0.6020    0.0000 C   0  0  0  0  0  0  0  0  0  0  0  0
    1.4869    0.1895    0.0000 C   0  0  0  0  0  0  0  0  0  0  0  0
    1.4869   -0.6355    0.0000 C   0  0  0  0  0  0  0  0  0  0  0  0
    2.2013   -1.0480    0.0000 C   0  0  0  0  0  0  0  0  0  0  0  0
    2.2013   -1.8730    0.0000 O   0  0  0  0  0  0  0  0  0  0  0  0
    2.9158   -2.2855    0.0000 C   0  0  0  0  0  0  0  0  0  0  0  0
    2.9158   -0.6355    0.0000 C   0  0  0  0  0  0  0  0  0  0  0  0
    3.6303   -1.0480    0.0000 O   0  0  0  0  0  0  0  0  0  0  0  0
    3.6303   -1.8730    0.0000 C   0  0  0  0  0  0  0  0  0  0  0  0
    4.3448   -2.2855    0.0000 C   0  0  0  0  0  0  0  0  0  0  0  0
    4.3448   -3.1105    0.0000 C   0  0  0  0  0  0  0  0  0  0  0  0
    5.0592   -3.5230    0.0000 N   0  0  0  0  0  0  0  0  0  0  0  0
    5.0592   -4.3480    0.0000 C   0  0  0  0  0  0  0  0  0  0  0  0
    5.7737   -4.7605    0.0000 C   0  0  0  0  0  0  0  0  0  0  0  0
    6.4882   -4.3480    0.0000 N   0  0  0  0  0  0  0  0  0  0  0  0
    7.2026   -4.7605    0.0000 C   0  0  0  0  0  0  0  0  0  0  0  0
    6.4882   -3.5230    0.0000 C   0  0  0  0  0  0  0  0  0  0  0  0
    5.7737   -3.1105    0.0000 C   0  0  0  0  0  0  0  0  0  0  0  0
    2.9158    0.1895    0.0000 C   0  0  0  0  0  0  0  0  0  0  0  0
    2.9158    1.8395    0.0000 C   0  0  0  0  0  0  0  0  0  0  0  0
    2.9158    2.6645    0.0000 C   0  0  0  0  0  0  0  0  0  0  0  0
    2.2013    3.0770    0.0000 C   0  0  0  0  0  0  0  0  0  0  0  0
    2.2013    3.9020    0.0000 N   0  0  0  0  0  0  0  0  0  0  0  0
    1.4869    4.3145    0.0000 C   0  0  0  0  0  0  0  0  0  0  0  0
    1.4869    5.1395    0.0000 C   0  0  0  0  0  0  0  0  0  0  0  0
    2.2013    5.5520    0.0000 Cl  0  0  0  0  0  0  0  0  0  0  0  0
    0.7724    5.5520    0.0000 C   0  0  0  0  0  0  0  0  0  0  0  0
    0.0579    5.1395    0.0000 C   0  0  0  0  0  0  0  0  0  0  0  0
   -0.6565    5.5520    0.0000 Cl  0  0  0  0  0  0  0  0  0  0  0  0
    0.0579    4.3145    0.0000 C   0  0  0  0  0  0  0  0  0  0  0  0
   -0.6565    3.9020    0.0000 O   0  0  0  0  0  0  0  0  0  0  0  0
   -0.6565    3.0770    0.0000 C   0  0  0  0  0  0  0  0  0  0  0  0
    0.7724    3.9020    0.0000 C   0  0  0  0  0  0  0  0  0  0  0  0
    1.4869    2.6645    0.0000 O   0  0  0  0  0  0  0  0  0  0  0  0
    3.6303    3.0770    0.0000 C   0  0  0  0  0  0  0  0  0  0  0  0
    4.3448    3.4895    0.0000 N   0  0  0  0  0  0  0  0  0  0  0  0
  1  2  1  4  0  0  0
  3  2  2  0  0  0  0
  4  3  1  0  0  0  0
  5  4  2  0  0  0  0
  5  6  1  0  0  0  0
  6  7  1  0  0  0  0
  8  5  1  0  0  0  0
  8  9  1  0  0  0  0
  9 10  1  0  0  0  0
 10 11  1  0  0  0  0
 11 12  1  0  0  0  0
 12 13  1  0  0  0  0
 14 13  1  0  0  0  0
 15 14  1  0  0  0  0
 16 15  1  0  0  0  0
 16 17  1  0  0  0  0
 18 16  1  0  0  0  0
 19 18  1  0  0  0  0
 13 19  1  0  0  0  0
 20  8  2  0  0  0  0
  2 20  1  0  0  0  0
  1 21  2  0  0  0  0
 21 22  1  0  0  0  0
 22 23  1  0  0  0  0
 23 24  1  0  0  0  0
 24 25  1  0  0  0  0
 26 25  1  0  0  0  0
 26 27  1  0  0  0  0
 28 26  2  0  0  0  0
 29 28  1  0  0  0  0
 29 30  1  0  0  0  0
 31 29  2  0  0  0  0
 31 32  1  0  0  0  0
 32 33  1  0  0  0  0
 34 31  1  0  0  0  0
 25 34  2  0  0  0  0
 23 35  2  0  0  0  0
 22 36  1  0  0  0  0
 36 37  3  0  0  0  0
M  END
> <RowID>
563

> <Original_SMILES>
CC(C)O.CN1CCN(CC1)CCCOC1C=C(C=CC=1OC)NC=C(C#N)C(=O)NC1C=C(OC)C(Cl)=CC=1Cl.CN1CCN(CC1)CCCOC1C=C(C=CC=1OC)NC=C(C#N)C(=O)NC1C=C(OC)C(Cl)=CC=1Cl

> <Canonical_QSARr>
CN1CCN(CCCOC2=CC(=CC=C2OC)N=CC(C#N)C(=O)NC2=CC(OC)=C(Cl)C=C2Cl)CC1

> <InChI_Code_QSARr>
InChI=1S/C26H31Cl2N5O4/c1-32-8-10-33(11-9-32)7-4-12-37-25-13-19(5-6-23(25)35-2)30-17-18(16-29)26(34)31-22-15-24(36-3)21(28)14-20(22)27/h5-6,13-15,17-18H,4,7-12H2,1-3H3,(H,31,34)

> <InChI Key_QSARr>
ZWSYVZZQQBEVER-UHFFFAOYSA-N

> <Salt_Solvent>
CC(O)C

> <Salt_Solvent_ID>
1770

> <Number of connected components>
3

$$$$
Molecule_565
  Mrv2316 01072400032D          

  9  8  0  0  0  0            999 V2000
   -0.1914    0.7145    0.0000 C   0  0  0  0  0  0  0  0  0  0  0  0
    0.5230    1.1270    0.0000 C   0  0  0  0  0  0  0  0  0  0  0  0
    0.5230    1.9520    0.0000 O   0  0  0  0  0  0  0  0  0  0  0  0
    1.2375    0.7145    0.0000 C   0  0  0  0  0  0  0  0  0  0  0  0
    1.9520    1.1270    0.0000 C   0  0  0  0  0  0  0  0  0  0  0  0
    1.9520    1.9520    0.0000 O   0  0  0  0  0  0  0  0  0  0  0  0
    2.6664    0.7145    0.0000 N   0  0  0  0  0  0  0  0  0  0  0  0
    3.3809    1.1270    0.0000 C   0  0  0  0  0  0  0  0  0  0  0  0
    2.6664   -0.1105    0.0000 C   0  0  0  0  0  0  0  0  0  0  0  0
  1  2  1  0  0  0  0
  2  3  2  0  0  0  0
  2  4  1  0  0  0  0
  4  5  1  0  0  0  0
  5  6  2  0  0  0  0
  5  7  1  0  0  0  0
  7  8  1  0  0  0  0
  7  9  1  0  0  0  0
M  END
> <RowID>
565

> <Original_SMILES>
CC(=O)CC(=O)N(C)C

> <Canonical_QSARr>
CC(=O)CC(=O)N(C)C

> <InChI_Code_QSARr>
InChI=1S/C6H11NO2/c1-5(8)4-6(9)7(2)3/h4H2,1-3H3

> <InChI Key_QSARr>
YPEWWOUWRRQBAX-UHFFFAOYSA-N

> <Salt_Solvent>


> <Salt_Solvent_ID>
0

> <Number of connected components>
1

$$$$
Molecule_566
  Mrv2316 01072400032D          

 31 35  0  0  0  0            999 V2000
   -0.0086    0.0112    0.0000 C   0  0  0  0  0  0  0  0  0  0  0  0
    0.4936   -0.6433    0.0000 C   0  0  0  0  0  0  0  0  0  0  0  0
    1.3116   -0.5356    0.0000 C   0  0  0  0  0  0  0  0  0  0  0  0
    1.8138   -1.1901    0.0000 C   0  0  0  0  0  0  0  0  0  0  0  0
    2.5760   -0.8744    0.0000 C   0  0  0  0  0  0  0  0  0  0  0  0
    3.3382   -1.1901    0.0000 C   0  0  0  0  0  0  0  0  0  0  0  0
    3.8404   -0.5356    0.0000 C   0  0  0  0  0  0  0  0  0  0  0  0
    4.6584   -0.6433    0.0000 C   0  0  0  0  0  0  0  0  0  0  0  0
    5.1606    0.0112    0.0000 C   0  0  0  0  0  0  0  0  0  0  0  0
    4.9741   -1.4055    0.0000 C   0  0  0  0  0  0  0  0  0  0  0  0
    4.4719   -2.0600    0.0000 C   0  0  0  0  0  0  0  0  0  0  0  0
    4.7876   -2.8222    0.0000 C   0  0  0  0  0  0  0  0  0  0  0  0
    4.2854   -3.4767    0.0000 C   0  0  0  0  0  0  0  0  0  0  0  0
    4.6011   -4.2389    0.0000 C   0  0  0  0  0  0  0  0  0  0  0  0
    5.4190   -4.3466    0.0000 C   0  0  0  0  0  0  0  0  0  0  0  0
    5.9212   -3.6921    0.0000 C   0  0  0  0  0  0  0  0  0  0  0  0
    5.6055   -2.9299    0.0000 C   0  0  0  0  0  0  0  0  0  0  0  0
    3.6539   -1.9523    0.0000 C   0  0  0  0  0  0  0  0  0  0  0  0
    3.3382   -2.7145    0.0000 O   0  0  0  0  0  0  0  0  0  0  0  0
    2.5760   -3.0303    0.0000 P   0  0  0  0  0  0  0  0  0  0  0  0
    2.5760   -3.8553    0.0000 O   0  0  0  0  0  0  0  0  0  0  0  0
    1.8138   -2.7145    0.0000 O   0  0  0  0  0  0  0  0  0  0  0  0
    1.4981   -1.9523    0.0000 C   0  0  0  0  0  0  0  0  0  0  0  0
    0.6802   -2.0600    0.0000 C   0  0  0  0  0  0  0  0  0  0  0  0
    0.3644   -2.8222    0.0000 C   0  0  0  0  0  0  0  0  0  0  0  0
   -0.4535   -2.9299    0.0000 C   0  0  0  0  0  0  0  0  0  0  0  0
   -0.7692   -3.6921    0.0000 C   0  0  0  0  0  0  0  0  0  0  0  0
   -0.2670   -4.3466    0.0000 C   0  0  0  0  0  0  0  0  0  0  0  0
    0.5510   -4.2389    0.0000 C   0  0  0  0  0  0  0  0  0  0  0  0
    0.8667   -3.4767    0.0000 C   0  0  0  0  0  0  0  0  0  0  0  0
    0.1779   -1.4055    0.0000 C   0  0  0  0  0  0  0  0  0  0  0  0
  1  2  1  0  0  0  0
  3  2  2  0  0  0  0
  4  3  1  0  0  0  0
  4  5  1  0  0  0  0
  5  6  1  0  0  0  0
  7  6  1  0  0  0  0
  8  7  2  0  0  0  0
  8  9  1  0  0  0  0
 10  8  1  0  0  0  0
 11 10  2  0  0  0  0
 11 12  1  0  0  0  0
 13 12  1  0  0  0  0
 14 13  1  0  0  0  0
 15 14  1  0  0  0  0
 16 15  1  0  0  0  0
 17 16  1  0  0  0  0
 12 17  1  0  0  0  0
 18 11  1  0  0  0  0
  6 18  2  0  0  0  0
 18 19  1  0  0  0  0
 19 20  1  0  0  0  0
 20 21  1  0  0  0  0
 20 22  1  0  0  0  0
 22 23  1  0  0  0  0
 23  4  2  0  0  0  0
 24 23  1  0  0  0  0
 24 25  1  0  0  0  0
 26 25  1  0  0  0  0
 27 26  1  0  0  0  0
 28 27  1  0  0  0  0
 29 28  1  0  0  0  0
 30 29  1  0  0  0  0
 25 30  1  0  0  0  0
 31 24  2  0  0  0  0
  2 31  1  0  0  0  0
M  END
> <RowID>
566

> <Original_SMILES>
CC1=CC2CC3C=C(C)C=C(C4CCCCC4)C=3OP(O)OC=2C(=C1)C1CCCCC1

> <Canonical_QSARr>
CC1=CC2CC3C=C(C)C=C(C4CCCCC4)C=3OP(O)OC=2C(=C1)C1CCCCC1

> <InChI_Code_QSARr>
InChI=1S/C27H35O3P/c1-18-13-22-17-23-14-19(2)16-25(21-11-7-4-8-12-21)27(23)30-31(28)29-26(22)24(15-18)20-9-5-3-6-10-20/h13-16,20-21,28H,3-12,17H2,1-2H3

> <InChI Key_QSARr>
PFUFEQATNPTGNA-UHFFFAOYSA-N

> <Salt_Solvent>


> <Salt_Solvent_ID>
0

> <Number of connected components>
1

$$$$
Molecule_568
  Mrv2316 01072400032D          

 12 11  0  0  0  0            999 V2000
    4.2355    3.2704    0.0000 C   0  0  0  0  0  0  0  0  0  0  0  0
    4.9500    2.8579    0.0000 C   0  0  0  0  0  0  0  0  0  0  0  0
    5.6645    3.2704    0.0000 C   0  0  0  0  0  0  0  0  0  0  0  0
    6.3789    2.8579    0.0000 C   0  0  0  0  0  0  0  0  0  0  0  0
    7.0934    3.2704    0.0000 C   0  0  0  0  0  0  0  0  0  0  0  0
    7.8079    2.8579    0.0000 C   0  0  0  0  0  0  0  0  0  0  0  0
    8.5224    3.2704    0.0000 C   0  0  0  0  0  0  0  0  0  0  0  0
    8.5224    4.0954    0.0000 O   0  0  0  0  0  0  0  0  0  0  0  0
    9.2368    2.8579    0.0000 O   0  0  0  0  0  0  0  0  0  0  0  0
    9.9513    3.2704    0.0000 C   0  0  0  0  0  0  0  0  0  0  0  0
   10.6658    2.8579    0.0000 C   0  0  0  0  0  0  0  0  0  0  0  0
   11.3802    3.2704    0.0000 C   0  0  0  0  0  0  0  0  0  0  0  0
  1  2  1  0  0  0  0
  2  3  1  0  0  0  0
  3  4  1  0  0  0  0
  4  5  1  0  0  0  0
  5  6  1  0  0  0  0
  6  7  1  0  0  0  0
  7  8  2  0  0  0  0
  7  9  1  0  0  0  0
  9 10  1  0  0  0  0
 10 11  1  0  0  0  0
 11 12  2  0  0  0  0
M  END
> <RowID>
568

> <Original_SMILES>
CCCCCCC(=O)OCC=C

> <Canonical_QSARr>
CCCCCCC(=O)OCC=C

> <InChI_Code_QSARr>
InChI=1S/C10H18O2/c1-3-5-6-7-8-10(11)12-9-4-2/h4H,2-3,5-9H2,1H3

> <InChI Key_QSARr>
SJWKGDGUQTWDRV-UHFFFAOYSA-N

> <Salt_Solvent>


> <Salt_Solvent_ID>
0

> <Number of connected components>
1

$$$$
Molecule_572
  Mrv2316 01072400032D          

 48 52  0  0  0  0            999 V2000
   -6.6438   -5.4527    0.0000 C   0  0  0  0  0  0  0  0  0  0  0  0
   -5.9293   -5.0402    0.0000 C   0  0  0  0  0  0  0  0  0  0  0  0
   -5.2149   -5.4527    0.0000 C   0  0  0  0  0  0  0  0  0  0  0  0
   -4.5004   -5.0402    0.0000 C   0  0  0  0  0  0  0  0  0  0  0  0
   -4.5004   -4.2152    0.0000 C   0  0  0  0  0  0  0  0  0  0  0  0
   -5.2149   -3.8027    0.0000 C   0  0  0  0  0  0  0  0  0  0  0  0
   -5.2149   -2.9777    0.0000 C   0  0  0  0  0  0  0  0  0  0  0  0
   -5.9293   -4.2152    0.0000 C   0  0  0  0  0  0  0  0  0  0  0  0
   -6.6438   -3.8027    0.0000 O   0  0  0  0  0  0  0  0  0  0  0  0
   -6.6438   -2.9777    0.0000 P   0  0  0  0  0  0  0  0  0  0  0  0
   -5.8188   -2.9777    0.0000 O   0  0  0  0  0  0  0  0  0  0  0  0
   -6.6438   -2.1527    0.0000 O   0  0  0  0  0  0  0  0  0  0  0  0
   -5.9293   -1.7402    0.0000 C   0  0  0  0  0  0  0  0  0  0  0  0
   -5.2149   -2.1527    0.0000 C   0  0  0  0  0  0  0  0  0  0  0  0
   -4.5004   -1.7402    0.0000 C   0  0  0  0  0  0  0  0  0  0  0  0
   -3.7859   -2.1527    0.0000 O   0  0  0  0  0  0  0  0  0  0  0  0
   -3.7859   -2.9777    0.0000 P   0  0  0  0  0  0  0  0  0  0  0  0
   -4.6109   -2.9777    0.0000 O   0  0  0  0  0  0  0  0  0  0  0  0
   -3.7859   -3.8027    0.0000 O   0  0  0  0  0  0  0  0  0  0  0  0
   -3.0715   -4.2152    0.0000 C   0  0  0  0  0  0  0  0  0  0  0  0
   -3.0715   -5.0402    0.0000 C   0  0  0  0  0  0  0  0  0  0  0  0
   -3.7859   -5.4527    0.0000 C   0  0  0  0  0  0  0  0  0  0  0  0
   -2.3570   -5.4527    0.0000 C   0  0  0  0  0  0  0  0  0  0  0  0
   -1.6425   -5.0402    0.0000 C   0  0  0  0  0  0  0  0  0  0  0  0
   -1.6425   -4.2152    0.0000 C   0  0  0  0  0  0  0  0  0  0  0  0
   -2.3570   -3.8027    0.0000 C   0  0  0  0  0  0  0  0  0  0  0  0
   -2.3570   -2.9777    0.0000 C   0  0  0  0  0  0  0  0  0  0  0  0
   -2.9609   -2.9777    0.0000 O   0  0  0  0  0  0  0  0  0  0  0  0
   -2.5484   -2.2632    0.0000 C   0  0  0  0  0  0  0  0  0  0  0  0
   -1.7234   -2.2632    0.0000 C   0  0  0  0  0  0  0  0  0  0  0  0
   -1.3109   -2.9777    0.0000 C   0  0  0  0  0  0  0  0  0  0  0  0
   -1.3109   -1.5487    0.0000 C   0  0  0  0  0  0  0  0  0  0  0  0
   -1.7234   -0.8343    0.0000 C   0  0  0  0  0  0  0  0  0  0  0  0
   -2.5484   -0.8343    0.0000 C   0  0  0  0  0  0  0  0  0  0  0  0
   -2.9609   -1.5487    0.0000 C   0  0  0  0  0  0  0  0  0  0  0  0
   -3.7859   -1.5487    0.0000 C   0  0  0  0  0  0  0  0  0  0  0  0
   -4.5004   -0.9152    0.0000 C   0  0  0  0  0  0  0  0  0  0  0  0
   -5.2149   -0.5027    0.0000 C   0  0  0  0  0  0  0  0  0  0  0  0
   -5.9293   -0.9152    0.0000 C   0  0  0  0  0  0  0  0  0  0  0  0
   -7.4688   -2.9777    0.0000 O   0  0  0  0  0  0  0  0  0  0  0  0
   -7.8813   -2.2632    0.0000 C   0  0  0  0  0  0  0  0  0  0  0  0
   -7.4688   -1.5487    0.0000 C   0  0  0  0  0  0  0  0  0  0  0  0
   -6.6438   -1.5487    0.0000 C   0  0  0  0  0  0  0  0  0  0  0  0
   -7.8813   -0.8343    0.0000 C   0  0  0  0  0  0  0  0  0  0  0  0
   -8.7063   -0.8343    0.0000 C   0  0  0  0  0  0  0  0  0  0  0  0
   -9.1188   -1.5487    0.0000 C   0  0  0  0  0  0  0  0  0  0  0  0
   -8.7063   -2.2632    0.0000 C   0  0  0  0  0  0  0  0  0  0  0  0
   -9.1188   -2.9777    0.0000 C   0  0  0  0  0  0  0  0  0  0  0  0
  1  2  1  0  0  0  0
  3  2  1  0  0  0  0
  4  3  2  0  0  0  0
  5  4  1  0  0  0  0
  6  5  2  0  0  0  0
  6  7  1  0  0  0  0
  8  6  1  0  0  0  0
  2  8  2  0  0  0  0
  8  9  1  0  0  0  0
  9 10  1  0  0  0  0
 10 11  2  0  0  0  0
 10 12  1  0  0  0  0
 12 13  1  0  0  0  0
 14 13  1  0  0  0  0
 15 14  2  0  0  0  0
 15 16  1  0  0  0  0
 16 17  1  0  0  0  0
 17 18  2  0  0  0  0
 17 19  1  0  0  0  0
 19 20  1  0  0  0  0
 21 20  1  0  0  0  0
 21 22  1  0  0  0  0
 23 21  2  0  0  0  0
 24 23  1  0  0  0  0
 25 24  2  0  0  0  0
 26 25  1  0  0  0  0
 20 26  2  0  0  0  0
 26 27  1  0  0  0  0
 17 28  1  0  0  0  0
 28 29  1  0  0  0  0
 30 29  1  0  0  0  0
 30 31  1  0  0  0  0
 32 30  2  0  0  0  0
 33 32  1  0  0  0  0
 34 33  2  0  0  0  0
 35 34  1  0  0  0  0
 29 35  2  0  0  0  0
 35 36  1  0  0  0  0
 37 15  1  0  0  0  0
 38 37  2  0  0  0  0
 39 38  1  0  0  0  0
 13 39  2  0  0  0  0
 10 40  1  0  0  0  0
 40 41  1  0  0  0  0
 42 41  1  0  0  0  0
 42 43  1  0  0  0  0
 44 42  2  0  0  0  0
 45 44  1  0  0  0  0
 46 45  2  0  0  0  0
 47 46  1  0  0  0  0
 41 47  2  0  0  0  0
 47 48  1  0  0  0  0
M  END
> <RowID>
572

> <Original_SMILES>
CC1C=CC=C(C)C=1OP(=O)(OC1C=C(C=CC=1)OP(=O)(OC1C(C)=CC=CC=1C)OC1C(C)=CC=CC=1C)OC1C(C)=CC=CC=1C

> <Canonical_QSARr>
CC1C=CC=C(C)C=1OP(=O)(OC1C=C(C=CC=1)OP(=O)(OC1C(C)=CC=CC=1C)OC1C(C)=CC=CC=1C)OC1C(C)=CC=CC=1C

> <InChI_Code_QSARr>
InChI=1S/C38H40O8P2/c1-25-14-9-15-26(2)35(25)43-47(39,44-36-27(3)16-10-17-28(36)4)41-33-22-13-23-34(24-33)42-48(40,45-37-29(5)18-11-19-30(37)6)46-38-31(7)20-12-21-32(38)8/h9-24H,1-8H3

> <InChI Key_QSARr>
YOLFSLXHLNWPKG-UHFFFAOYSA-N

> <Salt_Solvent>


> <Salt_Solvent_ID>
0

> <Number of connected components>
1

$$$$
Molecule_573
  Mrv2316 01072400032D          

 20 19  0  0  0  0            999 V2000
    2.6664    0.7145    0.0000 C   0  0  0  0  0  0  0  0  0  0  0  0
    1.9520    0.3020    0.0000 O   0  0  0  0  0  0  0  0  0  0  0  0
    1.2375    0.7145    0.0000 Si  0  0  0  0  0  0  0  0  0  0  0  0
    0.5230    1.1270    0.0000 C   0  0  0  0  0  0  0  0  0  0  0  0
   -0.1914    0.7145    0.0000 C   0  0  0  0  0  0  0  0  0  0  0  0
   -0.9059    1.1270    0.0000 C   0  0  0  0  0  0  0  0  0  0  0  0
   -1.6204    0.7145    0.0000 C   0  0  0  0  0  0  0  0  0  0  0  0
   -2.3349    1.1270    0.0000 C   0  0  0  0  0  0  0  0  0  0  0  0
   -3.0493    0.7145    0.0000 C   0  0  0  0  0  0  0  0  0  0  0  0
   -3.7638    1.1270    0.0000 Si  0  0  0  0  0  0  0  0  0  0  0  0
   -4.4783    1.5395    0.0000 O   0  0  0  0  0  0  0  0  0  0  0  0
   -5.1927    1.1270    0.0000 C   0  0  0  0  0  0  0  0  0  0  0  0
   -3.3513    1.8415    0.0000 O   0  0  0  0  0  0  0  0  0  0  0  0
   -3.7638    2.5559    0.0000 C   0  0  0  0  0  0  0  0  0  0  0  0
   -4.1763    0.4125    0.0000 O   0  0  0  0  0  0  0  0  0  0  0  0
   -5.0013    0.4125    0.0000 C   0  0  0  0  0  0  0  0  0  0  0  0
    1.6500    1.4290    0.0000 O   0  0  0  0  0  0  0  0  0  0  0  0
    1.2375    2.1434    0.0000 C   0  0  0  0  0  0  0  0  0  0  0  0
    0.8250    0.0000    0.0000 O   0  0  0  0  0  0  0  0  0  0  0  0
    0.0000    0.0000    0.0000 C   0  0  0  0  0  0  0  0  0  0  0  0
  1  2  1  0  0  0  0
  2  3  1  0  0  0  0
  3  4  1  0  0  0  0
  4  5  1  0  0  0  0
  5  6  1  0  0  0  0
  6  7  1  0  0  0  0
  7  8  1  0  0  0  0
  8  9  1  0  0  0  0
  9 10  1  0  0  0  0
 10 11  1  0  0  0  0
 11 12  1  0  0  0  0
 10 13  1  0  0  0  0
 13 14  1  0  0  0  0
 10 15  1  0  0  0  0
 15 16  1  0  0  0  0
  3 17  1  0  0  0  0
 17 18  1  0  0  0  0
  3 19  1  0  0  0  0
 19 20  1  0  0  0  0
M  END
> <RowID>
573

> <Original_SMILES>
CO[Si](CCCCCC[Si](OC)(OC)OC)(OC)OC

> <Canonical_QSARr>
CO[Si](CCCCCC[Si](OC)(OC)OC)(OC)OC

> <InChI_Code_QSARr>
InChI=1S/C12H30O6Si2/c1-13-19(14-2,15-3)11-9-7-8-10-12-20(16-4,17-5)18-6/h7-12H2,1-6H3

> <InChI Key_QSARr>
GFKCWAROGHMSTC-UHFFFAOYSA-N

> <Salt_Solvent>


> <Salt_Solvent_ID>
0

> <Number of connected components>
1

$$$$
Molecule_574
  Mrv2316 01072400032D          

 10  9  0  0  0  0            999 V2000
    4.1250   -1.4289    0.0000 C   0  0  0  0  0  0  0  0  0  0  0  0
    3.3000   -1.4289    0.0000 C   0  0  0  0  0  0  0  0  0  0  0  0
    3.3000   -0.6039    0.0000 C   0  0  0  0  0  0  0  0  0  0  0  0
    3.3000   -2.2539    0.0000 O   0  0  0  0  0  0  0  0  0  0  0  0
    2.4750   -1.4289    0.0000 C   0  0  0  0  0  0  0  0  0  0  0  0
    2.0625   -2.1434    0.0000 O   0  0  0  0  0  0  0  0  0  0  0  0
    2.0625   -0.7145    0.0000 O   0  0  0  0  0  0  0  0  0  0  0  0
    1.2375   -0.7145    0.0000 C   0  0  0  0  0  0  0  0  0  0  0  0
    0.8250    0.0000    0.0000 C   0  0  0  0  0  0  0  0  0  0  0  0
    0.0000    0.0000    0.0000 C   0  0  0  0  0  0  0  0  0  0  0  0
  1  2  1  0  0  0  0
  2  3  1  0  0  0  0
  2  4  1  0  0  0  0
  2  5  1  0  0  0  0
  5  6  2  0  0  0  0
  5  7  1  0  0  0  0
  7  8  1  0  0  0  0
  8  9  1  0  0  0  0
  9 10  2  0  0  0  0
M  END
> <RowID>
574

> <Original_SMILES>
CC(C)(O)C(=O)OCC=C

> <Canonical_QSARr>
CC(C)(O)C(=O)OCC=C

> <InChI_Code_QSARr>
InChI=1S/C7H12O3/c1-4-5-10-6(8)7(2,3)9/h4,9H,1,5H2,2-3H3

> <InChI Key_QSARr>
CTQMWJKOPOFOSX-UHFFFAOYSA-N

> <Salt_Solvent>


> <Salt_Solvent_ID>
0

> <Number of connected components>
1

$$$$
Molecule_575
  Mrv2316 01072400032D          

 29 28  0  0  0  0            999 V2000
   -2.4750   -5.3329    0.0000 N   0  0  0  0  0  0  0  0  0  0  0  0
   -2.0625   -4.6184    0.0000 C   0  0  0  0  0  0  0  0  0  0  0  0
   -1.6500   -3.9039    0.0000 C   0  0  0  0  0  0  0  0  0  0  0  0
   -0.8250   -3.9039    0.0000 C   0  0  0  0  0  0  0  0  0  0  0  0
   -0.4125   -4.6184    0.0000 O   0  0  0  0  0  0  0  0  0  0  0  0
   -0.4125   -3.1895    0.0000 O   0  0  0  0  0  0  0  0  0  0  0  0
    0.4125   -3.1895    0.0000 C   0  0  0  0  0  0  0  0  0  0  0  0
    0.8250   -2.4750    0.0000 C   0  0  0  0  0  0  0  0  0  0  0  0
    1.2375   -1.7605    0.0000 C   0  0  0  0  0  0  0  0  0  0  0  0
    2.0625   -1.7605    0.0000 O   0  0  0  0  0  0  0  0  0  0  0  0
    2.4750   -1.0461    0.0000 C   0  0  0  0  0  0  0  0  0  0  0  0
    2.0625   -0.3316    0.0000 O   0  0  0  0  0  0  0  0  0  0  0  0
    3.3000   -1.0461    0.0000 C   0  0  0  0  0  0  0  0  0  0  0  0
    3.7125   -0.3316    0.0000 C   0  0  0  0  0  0  0  0  0  0  0  0
    4.1250    0.3829    0.0000 N   0  0  0  0  0  0  0  0  0  0  0  0
    1.5395   -2.8875    0.0000 C   0  0  0  0  0  0  0  0  0  0  0  0
    2.2539   -2.4750    0.0000 O   0  0  0  0  0  0  0  0  0  0  0  0
    2.9684   -2.8875    0.0000 C   0  0  0  0  0  0  0  0  0  0  0  0
    2.9684   -3.7125    0.0000 O   0  0  0  0  0  0  0  0  0  0  0  0
    3.6829   -2.4750    0.0000 C   0  0  0  0  0  0  0  0  0  0  0  0
    4.3973   -2.8875    0.0000 C   0  0  0  0  0  0  0  0  0  0  0  0
    5.1118   -3.3000    0.0000 N   0  0  0  0  0  0  0  0  0  0  0  0
    0.1105   -2.0625    0.0000 C   0  0  0  0  0  0  0  0  0  0  0  0
    0.1105   -1.2375    0.0000 O   0  0  0  0  0  0  0  0  0  0  0  0
    0.8250   -0.8250    0.0000 C   0  0  0  0  0  0  0  0  0  0  0  0
    1.5395   -1.2375    0.0000 O   0  0  0  0  0  0  0  0  0  0  0  0
    0.8250   -0.0000    0.0000 C   0  0  0  0  0  0  0  0  0  0  0  0
    1.5395    0.4125    0.0000 C   0  0  0  0  0  0  0  0  0  0  0  0
    2.2539    0.8250    0.0000 N   0  0  0  0  0  0  0  0  0  0  0  0
  1  2  3  0  0  0  0
  2  3  1  0  0  0  0
  3  4  1  0  0  0  0
  4  5  2  0  0  0  0
  4  6  1  0  0  0  0
  6  7  1  0  0  0  0
  7  8  1  0  0  0  0
  8  9  1  0  0  0  0
  9 10  1  0  0  0  0
 10 11  1  0  0  0  0
 11 12  2  0  0  0  0
 11 13  1  0  0  0  0
 13 14  1  0  0  0  0
 14 15  3  0  0  0  0
  8 16  1  0  0  0  0
 16 17  1  0  0  0  0
 17 18  1  0  0  0  0
 18 19  2  0  0  0  0
 18 20  1  0  0  0  0
 20 21  1  0  0  0  0
 21 22  3  0  0  0  0
  8 23  1  0  0  0  0
 23 24  1  0  0  0  0
 24 25  1  0  0  0  0
 25 26  2  0  0  0  0
 25 27  1  0  0  0  0
 27 28  1  0  0  0  0
 28 29  3  0  0  0  0
M  END
> <RowID>
575

> <Original_SMILES>
N#CCC(=O)OCC(COC(=O)CC#N)(COC(=O)CC#N)COC(=O)CC#N

> <Canonical_QSARr>
N#CCC(=O)OCC(COC(=O)CC#N)(COC(=O)CC#N)COC(=O)CC#N

> <InChI_Code_QSARr>
InChI=1S/C17H16N4O8/c18-5-1-13(22)26-9-17(10-27-14(23)2-6-19,11-28-15(24)3-7-20)12-29-16(25)4-8-21/h1-4,9-12H2

> <InChI Key_QSARr>
HTQAGAJZBGSZIY-UHFFFAOYSA-N

> <Salt_Solvent>


> <Salt_Solvent_ID>
0

> <Number of connected components>
1

$$$$
Molecule_576
  Mrv2316 01072400032D          

  9  8  0  0  0  0            999 V2000
    1.9520    1.9520    0.0000 N   0  0  0  0  0  0  0  0  0  0  0  0
    1.9520    1.1270    0.0000 C   0  0  0  0  0  0  0  0  0  0  0  0
    1.2375    0.7145    0.0000 C   0  0  0  0  0  0  0  0  0  0  0  0
    0.5230    1.1270    0.0000 C   0  0  0  0  0  0  0  0  0  0  0  0
   -0.1914    0.7145    0.0000 O   0  0  0  0  0  0  0  0  0  0  0  0
    0.5230    1.9520    0.0000 O   0  0  0  0  0  0  0  0  0  0  0  0
    2.6664    0.7145    0.0000 C   0  0  0  0  0  0  0  0  0  0  0  0
    3.3809    1.1270    0.0000 O   0  0  0  0  0  0  0  0  0  0  0  0
    2.6664   -0.1105    0.0000 O   0  0  0  0  0  0  0  0  0  0  0  0
  1  2  1  0  0  0  0
  2  3  1  0  0  0  0
  3  4  1  0  0  0  0
  4  5  1  0  0  0  0
  4  6  2  0  0  0  0
  2  7  1  0  0  0  0
  7  8  1  0  0  0  0
  7  9  2  0  0  0  0
M  END
> <RowID>
576

> <Original_SMILES>
NC(CC(O)=O)C(O)=O

> <Canonical_QSARr>
NC(CC(O)=O)C(O)=O

> <InChI_Code_QSARr>
InChI=1S/C4H7NO4/c5-2(4(8)9)1-3(6)7/h2H,1,5H2,(H,6,7)(H,8,9)

> <InChI Key_QSARr>
CKLJMWTZIZZHCS-UHFFFAOYSA-N

> <Salt_Solvent>


> <Salt_Solvent_ID>
0

> <Number of connected components>
1

$$$$
Molecule_577
  Mrv2316 01072400032D          

  8  8  0  0  0  0            999 V2000
    0.1654   -1.0853    0.0000 C   0  0  0  0  0  0  0  0  0  0  0  0
   -0.1701   -0.3317    0.0000 C   0  0  0  0  0  0  0  0  0  0  0  0
    0.3148    0.3358    0.0000 N   0  0  0  0  0  0  0  0  0  0  0  0
    1.1398    0.3358    0.0000 C   0  0  0  0  0  0  0  0  0  0  0  0
    1.3948    1.1204    0.0000 C   0  0  0  0  0  0  0  0  0  0  0  0
    0.7273    1.6053    0.0000 N   0  3  0  0  0  0  0  0  0  0  0  0
    0.7273    2.4303    0.0000 C   0  0  0  0  0  0  0  0  0  0  0  0
    0.0599    1.1204    0.0000 C   0  0  0  0  0  0  0  0  0  0  0  0
  1  2  1  0  0  0  0
  2  3  1  0  0  0  0
  4  3  1  0  0  0  0
  5  4  2  0  0  0  0
  6  5  1  0  0  0  0
  6  7  1  0  0  0  0
  8  6  2  0  0  0  0
  3  8  1  0  0  0  0
M  CHG  1   6   1
M  END
> <RowID>
577

> <Original_SMILES>
CCN1C=[N+](C)C=C1.CS([O-])(=O)=O

> <Canonical_QSARr>
CCN1C=[N+](C)C=C1

> <InChI_Code_QSARr>
InChI=1S/C6H11N2/c1-3-8-5-4-7(2)6-8/h4-6H,3H2,1-2H3/q+1

> <InChI Key_QSARr>
NJMWOUFKYKNWDW-UHFFFAOYSA-N

> <Salt_Solvent>
CS(=O)(=O)[O-]

> <Salt_Solvent_ID>
2032

> <Number of connected components>
2

$$$$
Molecule_578
  Mrv2316 01072400032D          

  8  7  0  0  0  0            999 V2000
    1.6500    1.4290    0.0000 N   0  0  0  0  0  0  0  0  0  0  0  0
    1.2375    0.7145    0.0000 C   0  0  0  0  0  0  0  0  0  0  0  0
    0.5230    1.1270    0.0000 C   0  0  0  0  0  0  0  0  0  0  0  0
   -0.1914    0.7145    0.0000 O   0  0  0  0  0  0  0  0  0  0  0  0
    1.9520    0.3020    0.0000 C   0  0  0  0  0  0  0  0  0  0  0  0
    2.6664    0.7145    0.0000 O   0  0  0  0  0  0  0  0  0  0  0  0
    0.8250    0.0000    0.0000 C   0  0  0  0  0  0  0  0  0  0  0  0
    0.0000    0.0000    0.0000 O   0  0  0  0  0  0  0  0  0  0  0  0
  1  2  1  0  0  0  0
  2  3  1  0  0  0  0
  3  4  1  0  0  0  0
  2  5  1  0  0  0  0
  5  6  1  0  0  0  0
  2  7  1  0  0  0  0
  7  8  1  0  0  0  0
M  END
> <RowID>
578

> <Original_SMILES>
NC(CO)(CO)CO

> <Canonical_QSARr>
NC(CO)(CO)CO

> <InChI_Code_QSARr>
InChI=1S/C4H11NO3/c5-4(1-6,2-7)3-8/h6-8H,1-3,5H2

> <InChI Key_QSARr>
LENZDBCJOHFCAS-UHFFFAOYSA-N

> <Salt_Solvent>


> <Salt_Solvent_ID>
0

> <Number of connected components>
1

$$$$
Molecule_579
  Mrv2316 01072400032D          

 10  9  0  0  0  0            999 V2000
    1.7605    1.8414    0.0000 C   0  0  0  0  0  0  0  0  0  0  0  0
    2.4750    1.4289    0.0000 C   0  0  0  0  0  0  0  0  0  0  0  0
    2.4750    0.6039    0.0000 C   0  0  0  0  0  0  0  0  0  0  0  0
    3.1895    1.8414    0.0000 C   0  0  0  0  0  0  0  0  0  0  0  0
    3.9039    1.4289    0.0000 O   0  0  0  0  0  0  0  0  0  0  0  0
    4.6184    1.8414    0.0000 C   0  0  0  0  0  0  0  0  0  0  0  0
    4.6184    2.6664    0.0000 O   0  0  0  0  0  0  0  0  0  0  0  0
    5.3329    1.4289    0.0000 C   0  0  0  0  0  0  0  0  0  0  0  0
    6.0474    1.8414    0.0000 C   0  0  0  0  0  0  0  0  0  0  0  0
    5.3329    0.6039    0.0000 Cl  0  0  0  0  0  0  0  0  0  0  0  0
  1  2  1  0  0  0  0
  2  3  1  0  0  0  0
  2  4  1  0  0  0  0
  4  5  1  0  0  0  0
  5  6  1  0  0  0  0
  6  7  2  0  0  0  0
  6  8  1  0  0  0  0
  8  9  1  0  0  0  0
  8 10  1  0  0  0  0
M  END
> <RowID>
579

> <Original_SMILES>
CC(C)COC(=O)C(C)Cl

> <Canonical_QSARr>
CC(C)COC(=O)C(C)Cl

> <InChI_Code_QSARr>
InChI=1S/C7H13ClO2/c1-5(2)4-10-7(9)6(3)8/h5-6H,4H2,1-3H3

> <InChI Key_QSARr>
AEEGJNJYJCGJFZ-UHFFFAOYSA-N

> <Salt_Solvent>


> <Salt_Solvent_ID>
0

> <Number of connected components>
1

$$$$
Molecule_580
  Mrv2316 01072400032D          

 15 15  0  0  0  0            999 V2000
   -2.1434   -0.2475    0.0000 C   0  0  0  0  0  0  0  0  0  0  0  0
   -1.4289    0.1650    0.0000 C   0  0  0  0  0  0  0  0  0  0  0  0
   -1.4289    0.9900    0.0000 O   0  0  0  0  0  0  0  0  0  0  0  0
   -0.7145   -0.2475    0.0000 C   0  0  0  0  0  0  0  0  0  0  0  0
    0.0000    0.1650    0.0000 C   0  0  0  0  0  0  0  0  0  0  0  0
    0.0000    0.9900    0.0000 O   0  0  0  0  0  0  0  0  0  0  0  0
    0.7145   -0.2475    0.0000 N   0  0  0  0  0  0  0  0  0  0  0  0
    0.7145   -1.0725    0.0000 C   0  0  0  0  0  0  0  0  0  0  0  0
    0.0000   -1.4850    0.0000 C   0  0  0  0  0  0  0  0  0  0  0  0
    0.0000   -2.3100    0.0000 C   0  0  0  0  0  0  0  0  0  0  0  0
    0.7145   -2.7225    0.0000 C   0  0  0  0  0  0  0  0  0  0  0  0
    1.4289   -2.3100    0.0000 C   0  0  0  0  0  0  0  0  0  0  0  0
    1.4289   -1.4850    0.0000 C   0  0  0  0  0  0  0  0  0  0  0  0
    2.1434   -1.0725    0.0000 O   0  0  0  0  0  0  0  0  0  0  0  0
    2.1434   -0.2475    0.0000 C   0  0  0  0  0  0  0  0  0  0  0  0
  1  2  1  0  0  0  0
  2  3  2  0  0  0  0
  2  4  1  0  0  0  0
  4  5  1  0  0  0  0
  5  6  2  0  0  0  0
  5  7  1  0  0  0  0
  7  8  1  0  0  0  0
  9  8  1  0  0  0  0
 10  9  2  0  0  0  0
 11 10  1  0  0  0  0
 12 11  2  0  0  0  0
 13 12  1  0  0  0  0
  8 13  2  0  0  0  0
 13 14  1  0  0  0  0
 14 15  1  0  0  0  0
M  END
> <RowID>
580

> <Original_SMILES>
CC(=O)CC(=O)NC1C=CC=CC=1OC

> <Canonical_QSARr>
CC(=O)CC(=O)NC1C=CC=CC=1OC

> <InChI_Code_QSARr>
InChI=1S/C11H13NO3/c1-8(13)7-11(14)12-9-5-3-4-6-10(9)15-2/h3-6H,7H2,1-2H3,(H,12,14)

> <InChI Key_QSARr>
KYYRTDXOHQYZPO-UHFFFAOYSA-N

> <Salt_Solvent>


> <Salt_Solvent_ID>
0

> <Number of connected components>
1

$$$$
Molecule_581
  Mrv2316 01072400032D          

 10 11  0  0  0  0            999 V2000
    2.5423    1.5837    0.0000 C   0  0  0  0  0  0  0  0  0  0  0  0
    2.1267    0.8710    0.0000 C   0  0  0  0  0  0  0  0  0  0  0  0
    2.5362    0.1547    0.0000 C   0  0  0  0  0  0  0  0  0  0  0  0
    2.1206   -0.5580    0.0000 C   0  0  0  0  0  0  0  0  0  0  0  0
    1.2956   -0.5544    0.0000 C   0  0  0  0  0  0  0  0  0  0  0  0
    1.2326    0.1301    0.0000 C   0  0  0  0  0  0  0  0  0  0  0  0
    1.3017    0.8745    0.0000 C   0  0  0  0  0  0  0  0  0  0  0  0
    0.8862    0.1618    0.0000 C   0  0  0  0  0  0  0  0  0  0  0  0
    0.1594    0.5522    0.0000 C   0  0  0  0  0  0  0  0  0  0  0  0
    0.1561   -0.2224    0.0000 C   0  0  0  0  0  0  0  0  0  0  0  0
  1  2  1  0  0  0  0
  3  2  2  0  0  0  0
  4  3  1  0  0  0  0
  5  4  1  0  0  0  0
  5  6  1  0  0  0  0
  6  7  1  0  0  0  0
  2  7  1  0  0  0  0
  7  8  1  0  0  0  0
  8  5  1  0  0  0  0
  8  9  1  0  0  0  0
  8 10  1  0  0  0  0
M  END
> <RowID>
581

> <Original_SMILES>
CC1=CCC2CC1C2(C)C

> <Canonical_QSARr>
CC1=CCC2CC1C2(C)C

> <InChI_Code_QSARr>
InChI=1S/C10H16/c1-7-4-5-8-6-9(7)10(8,2)3/h4,8-9H,5-6H2,1-3H3

> <InChI Key_QSARr>
GRWFGVWFFZKLTI-UHFFFAOYSA-N

> <Salt_Solvent>


> <Salt_Solvent_ID>
0

> <Number of connected components>
1

$$$$
Molecule_582
  Mrv2316 01072400032D          

 10  9  0  0  0  0            999 V2000
    1.7605    1.8414    0.0000 C   0  0  0  0  0  0  0  0  0  0  0  0
    2.4750    1.4289    0.0000 C   0  0  0  0  0  0  0  0  0  0  0  0
    2.4750    0.6039    0.0000 C   0  0  0  0  0  0  0  0  0  0  0  0
    3.1895    1.8414    0.0000 C   0  0  0  0  0  0  0  0  0  0  0  0
    3.1895    2.6664    0.0000 O   0  0  0  0  0  0  0  0  0  0  0  0
    3.9039    1.4289    0.0000 O   0  0  0  0  0  0  0  0  0  0  0  0
    4.6184    1.8414    0.0000 C   0  0  0  0  0  0  0  0  0  0  0  0
    5.3329    1.4289    0.0000 C   0  0  0  0  0  0  0  0  0  0  0  0
    6.0474    1.8414    0.0000 C   0  0  0  0  0  0  0  0  0  0  0  0
    5.3329    0.6039    0.0000 C   0  0  0  0  0  0  0  0  0  0  0  0
  1  2  1  0  0  0  0
  2  3  2  0  0  0  0
  2  4  1  0  0  0  0
  4  5  2  0  0  0  0
  4  6  1  0  0  0  0
  6  7  1  0  0  0  0
  7  8  1  0  0  0  0
  8  9  1  0  0  0  0
  8 10  1  0  0  0  0
M  END
> <RowID>
582

> <Original_SMILES>
CC(=C)C(=O)OCC(C)C

> <Canonical_QSARr>
CC(=C)C(=O)OCC(C)C

> <InChI_Code_QSARr>
InChI=1S/C8H14O2/c1-6(2)5-10-8(9)7(3)4/h6H,3,5H2,1-2,4H3

> <InChI Key_QSARr>
RUMACXVDVNRZJZ-UHFFFAOYSA-N

> <Salt_Solvent>


> <Salt_Solvent_ID>
0

> <Number of connected components>
1

$$$$
Molecule_583
  Mrv2316 01072400032D          

 14 14  0  0  0  0            999 V2000
    0.0000   -0.9429    0.0000 C   0  0  0  0  0  0  0  0  0  0  0  0
    0.7145   -0.5304    0.0000 C   0  0  0  0  0  0  0  0  0  0  0  0
    1.4289   -0.9429    0.0000 C   0  0  0  0  0  0  0  0  0  0  0  0
    0.7145    0.2946    0.0000 C   0  0  0  0  0  0  0  0  0  0  0  0
    1.5395    0.2946    0.0000 C   0  0  0  0  0  0  0  0  0  0  0  0
   -0.1105    0.2946    0.0000 C   0  0  0  0  0  0  0  0  0  0  0  0
    0.7145    1.1196    0.0000 C   0  0  0  0  0  0  0  0  0  0  0  0
    1.4289    1.5321    0.0000 C   0  0  0  0  0  0  0  0  0  0  0  0
    1.4289    2.3571    0.0000 C   0  0  0  0  0  0  0  0  0  0  0  0
    0.7145    2.7696    0.0000 C   0  0  0  0  0  0  0  0  0  0  0  0
    0.7145    3.5946    0.0000 O   0  0  0  0  0  0  0  0  0  0  0  0
    0.0000    2.3571    0.0000 C   0  0  0  0  0  0  0  0  0  0  0  0
   -0.7145    2.7696    0.0000 C   0  0  0  0  0  0  0  0  0  0  0  0
    0.0000    1.5321    0.0000 C   0  0  0  0  0  0  0  0  0  0  0  0
  1  2  1  0  0  0  0
  2  3  1  0  0  0  0
  2  4  1  0  0  0  0
  4  5  1  0  0  0  0
  4  6  1  0  0  0  0
  4  7  1  0  0  0  0
  8  7  1  0  0  0  0
  9  8  1  0  0  0  0
 10  9  1  0  0  0  0
 10 11  2  0  0  0  0
 12 10  1  0  0  0  0
 12 13  1  0  0  0  0
 14 12  1  0  0  0  0
  7 14  1  0  0  0  0
M  END
> <RowID>
583

> <Original_SMILES>
CC(C)C(C)(C)C1CCC(=O)C(C)C1

> <Canonical_QSARr>
CC(C)C(C)(C)C1CCC(=O)C(C)C1

> <InChI_Code_QSARr>
InChI=1S/C13H24O/c1-9(2)13(4,5)11-6-7-12(14)10(3)8-11/h9-11H,6-8H2,1-5H3

> <InChI Key_QSARr>
FPDCOXAYRBJKJJ-UHFFFAOYSA-N

> <Salt_Solvent>


> <Salt_Solvent_ID>
0

> <Number of connected components>
1

$$$$
Molecule_584
  Mrv2316 01072400032D          

 15 15  0  0  0  0            999 V2000
    0.7145   -4.8675    0.0000 C   0  0  0  0  0  0  0  0  0  0  0  0
    1.4289   -4.4550    0.0000 C   0  0  0  0  0  0  0  0  0  0  0  0
    1.4289   -3.6300    0.0000 C   0  0  0  0  0  0  0  0  0  0  0  0
    2.1434   -4.8675    0.0000 C   0  0  0  0  0  0  0  0  0  0  0  0
    2.8579   -4.4550    0.0000 C   0  0  0  0  0  0  0  0  0  0  0  0
    2.8579   -3.6300    0.0000 O   0  0  0  0  0  0  0  0  0  0  0  0
    3.5724   -4.8675    0.0000 O   0  0  0  0  0  0  0  0  0  0  0  0
    4.2868   -4.4550    0.0000 C   0  0  0  0  0  0  0  0  0  0  0  0
    5.0013   -4.8675    0.0000 C   0  0  0  0  0  0  0  0  0  0  0  0
    5.7158   -4.4550    0.0000 C   0  0  0  0  0  0  0  0  0  0  0  0
    6.4302   -4.8675    0.0000 C   0  0  0  0  0  0  0  0  0  0  0  0
    7.1447   -4.4550    0.0000 C   0  0  0  0  0  0  0  0  0  0  0  0
    7.1447   -3.6300    0.0000 C   0  0  0  0  0  0  0  0  0  0  0  0
    6.4302   -3.2175    0.0000 C   0  0  0  0  0  0  0  0  0  0  0  0
    5.7158   -3.6300    0.0000 C   0  0  0  0  0  0  0  0  0  0  0  0
  1  2  1  0  0  0  0
  2  3  1  0  0  0  0
  2  4  1  0  0  0  0
  4  5  1  0  0  0  0
  5  6  2  0  0  0  0
  5  7  1  0  0  0  0
  7  8  1  0  0  0  0
  8  9  1  0  0  0  0
  9 10  1  0  0  0  0
 11 10  1  0  0  0  0
 12 11  2  0  0  0  0
 13 12  1  0  0  0  0
 14 13  2  0  0  0  0
 15 14  1  0  0  0  0
 10 15  2  0  0  0  0
M  END
> <RowID>
584

> <Original_SMILES>
CC(C)CC(=O)OCCC1C=CC=CC=1

> <Canonical_QSARr>
CC(C)CC(=O)OCCC1C=CC=CC=1

> <InChI_Code_QSARr>
InChI=1S/C13H18O2/c1-11(2)10-13(14)15-9-8-12-6-4-3-5-7-12/h3-7,11H,8-10H2,1-2H3

> <InChI Key_QSARr>
JIMGVOCOYZFDKB-UHFFFAOYSA-N

> <Salt_Solvent>


> <Salt_Solvent_ID>
0

> <Number of connected components>
1

$$$$
Molecule_585
  Mrv2316 01072400032D          

 52 55  0  0  0  0            999 V2000
   -9.7003    5.2197    0.0000 O   0  0  0  0  0  0  0  0  0  0  0  0
   -8.9859    4.8072    0.0000 S   0  0  0  0  0  0  0  0  0  0  0  0
   -9.3984    4.0927    0.0000 O   0  0  0  0  0  0  0  0  0  0  0  0
   -8.5734    5.5217    0.0000 O   0  0  0  0  0  0  0  0  0  0  0  0
   -8.2714    4.3947    0.0000 C   0  0  0  0  0  0  0  0  0  0  0  0
   -7.5569    4.8072    0.0000 C   0  0  0  0  0  0  0  0  0  0  0  0
   -6.8424    4.3947    0.0000 C   0  0  0  0  0  0  0  0  0  0  0  0
   -6.1280    4.8072    0.0000 S   0  0  0  0  0  0  0  0  0  0  0  0
   -5.4135    4.3947    0.0000 C   0  0  0  0  0  0  0  0  0  0  0  0
   -5.4135    3.5697    0.0000 N   0  0  0  0  0  0  0  0  0  0  0  0
   -4.6990    3.1572    0.0000 C   0  0  0  0  0  0  0  0  0  0  0  0
   -4.6990    2.3322    0.0000 S   0  0  0  0  0  0  0  0  0  0  0  0
   -3.9846    1.9197    0.0000 C   0  0  0  0  0  0  0  0  0  0  0  0
   -3.9846    1.0947    0.0000 C   0  0  0  0  0  0  0  0  0  0  0  0
   -3.2701    0.6822    0.0000 C   0  0  0  0  0  0  0  0  0  0  0  0
   -3.2701   -0.1428    0.0000 S   0  0  0  0  0  0  0  0  0  0  0  0
   -4.0951   -0.1428    0.0000 O   0  0  0  0  0  0  0  0  0  0  0  0
   -2.4451   -0.1428    0.0000 O   0  0  0  0  0  0  0  0  0  0  0  0
   -3.2701   -0.9678    0.0000 O   0  0  0  0  0  0  0  0  0  0  0  0
   -3.9846    3.5697    0.0000 N   0  0  0  0  0  0  0  0  0  0  0  0
   -3.9846    4.3947    0.0000 C   0  0  0  0  0  0  0  0  0  0  0  0
   -3.2701    4.8072    0.0000 N   0  0  0  0  0  0  0  0  0  0  0  0
   -2.5556    4.3947    0.0000 C   0  0  0  0  0  0  0  0  0  0  0  0
   -2.5556    3.5697    0.0000 C   0  0  0  0  0  0  0  0  0  0  0  0
   -3.2701    3.1572    0.0000 O   0  0  0  0  0  0  0  0  0  0  0  0
   -3.2701    2.3322    0.0000 C   0  0  0  0  0  0  0  0  0  0  0  0
   -1.8412    3.1572    0.0000 C   0  0  0  0  0  0  0  0  0  0  0  0
   -1.1267    3.5697    0.0000 C   0  0  0  0  0  0  0  0  0  0  0  0
   -0.4122    3.1572    0.0000 N   0  0  0  0  0  0  0  0  0  0  0  0
   -0.4122    2.3322    0.0000 N   0  0  0  0  0  0  0  0  0  0  0  0
    0.3023    1.9197    0.0000 C   0  0  0  0  0  0  0  0  0  0  0  0
    0.3023    1.0947    0.0000 C   0  0  0  0  0  0  0  0  0  0  0  0
    1.0167    0.6822    0.0000 C   0  0  0  0  0  0  0  0  0  0  0  0
    1.0167   -0.1428    0.0000 S   0  0  0  0  0  0  0  0  0  0  0  0
    1.0167   -0.9678    0.0000 O   0  0  0  0  0  0  0  0  0  0  0  0
    1.8417   -0.1428    0.0000 O   0  0  0  0  0  0  0  0  0  0  0  0
    0.1917   -0.1428    0.0000 O   0  0  0  0  0  0  0  0  0  0  0  0
    1.7312    1.0947    0.0000 C   0  0  0  0  0  0  0  0  0  0  0  0
    1.7312    1.9197    0.0000 C   0  0  0  0  0  0  0  0  0  0  0  0
    2.4457    2.3322    0.0000 C   0  0  0  0  0  0  0  0  0  0  0  0
    3.1601    1.9197    0.0000 C   0  0  0  0  0  0  0  0  0  0  0  0
    3.1601    1.0947    0.0000 C   0  0  0  0  0  0  0  0  0  0  0  0
    2.4457    0.6822    0.0000 C   0  0  0  0  0  0  0  0  0  0  0  0
    2.4457    3.1572    0.0000 S   0  0  0  0  0  0  0  0  0  0  0  0
    2.4457    3.9822    0.0000 O   0  0  0  0  0  0  0  0  0  0  0  0
    3.2707    3.1572    0.0000 O   0  0  0  0  0  0  0  0  0  0  0  0
    1.6207    3.1572    0.0000 O   0  0  0  0  0  0  0  0  0  0  0  0
    1.0167    2.3322    0.0000 C   0  0  0  0  0  0  0  0  0  0  0  0
   -1.1267    4.3947    0.0000 C   0  0  0  0  0  0  0  0  0  0  0  0
   -0.4122    4.8072    0.0000 C   0  0  0  0  0  0  0  0  0  0  0  0
   -1.8412    4.8072    0.0000 C   0  0  0  0  0  0  0  0  0  0  0  0
   -4.6990    4.8072    0.0000 N   0  0  0  0  0  0  0  0  0  0  0  0
  1  2  1  0  0  0  0
  2  3  2  0  0  0  0
  2  4  2  0  0  0  0
  2  5  1  0  0  0  0
  5  6  1  0  0  0  0
  6  7  1  0  0  0  0
  7  8  1  0  0  0  0
  8  9  1  0  0  0  0
 10  9  1  0  0  0  0
 11 10  2  0  0  0  0
 11 12  1  0  0  0  0
 12 13  1  0  0  0  0
 13 14  1  0  0  0  0
 14 15  1  0  0  0  0
 15 16  1  0  0  0  0
 16 17  1  0  0  0  0
 16 18  2  0  0  0  0
 16 19  2  0  0  0  0
 20 11  1  0  0  0  0
 21 20  2  0  0  0  0
 21 22  1  0  0  0  0
 22 23  1  0  0  0  0
 24 23  1  0  0  0  0
 24 25  1  0  0  0  0
 25 26  1  0  0  0  0
 27 24  2  0  0  0  0
 28 27  1  0  0  0  0
 29 28  1  4  0  0  0
 29 30  2  0  0  0  0
 30 31  1  0  0  0  0
 32 31  1  0  0  0  0
 33 32  2  0  0  0  0
 33 34  1  0  0  0  0
 34 35  1  0  0  0  0
 34 36  2  0  0  0  0
 34 37  2  0  0  0  0
 38 33  1  0  0  0  0
 38 39  2  0  0  0  0
 39 40  1  0  0  0  0
 40 41  2  0  0  0  0
 41 42  1  0  0  0  0
 42 43  2  0  0  0  0
 43 38  1  0  0  0  0
 40 44  1  0  0  0  0
 44 45  1  0  0  0  0
 44 46  2  0  0  0  0
 44 47  2  0  0  0  0
 48 39  1  0  0  0  0
 31 48  2  0  0  0  0
 49 28  2  0  0  0  0
 49 50  1  0  0  0  0
 51 49  1  0  0  0  0
 23 51  2  0  0  0  0
 52 21  1  0  0  0  0
  9 52  2  0  0  0  0
M  END
> <RowID>
585

> <Original_SMILES>
[Na+].[Na+].[Na+].[Na+].CC1=CC(NC2N=C(N=C(N=2)SCCCS([O-])(=O)=O)SCCCS([O-])(=O)=O)=C(C=C1N=NC1C=C2C(=CC=CC2=C(C=1)S([O-])(=O)=O)S([O-])(=O)=O)OC

> <Canonical_QSARr>
CC1C=C(NC2N=C(N=C(N=2)SCCCS(O)(=O)=O)SCCCS(O)(=O)=O)C(=CC=1N=NC1C=C(C2C=CC=C(C=2C=1)S(O)(=O)=O)S(O)(=O)=O)OC

> <InChI_Code_QSARr>
InChI=1S/C27H30N6O13S6/c1-16-12-21(28-25-29-26(47-8-4-10-49(34,35)36)31-27(30-25)48-9-5-11-50(37,38)39)22(46-2)15-20(16)33-32-17-13-19-18(24(14-17)52(43,44)45)6-3-7-23(19)51(40,41)42/h3,6-7,12-15H,4-5,8-11H2,1-2H3,(H,34,35,36)(H,37,38,39)(H,40,41,42)(H,43,44,45)(H,28,29,30,31)

> <InChI Key_QSARr>
MQNUWAMSQUIUHD-UHFFFAOYSA-N

> <Salt_Solvent>
[Na+]

> <Salt_Solvent_ID>
110

> <Number of connected components>
5

$$$$
Molecule_586
  Mrv2316 01072400032D          

 23 24  0  0  0  0            999 V2000
    1.2736   -0.7353    0.0000 O   0  5  0  0  0  0  0  0  0  0  0  0
    1.2736   -1.5603    0.0000 N   0  3  0  0  0  0  0  0  0  0  0  0
    1.9881   -1.9728    0.0000 O   0  0  0  0  0  0  0  0  0  0  0  0
    0.5591   -1.9728    0.0000 C   0  0  0  0  0  0  0  0  0  0  0  0
   -0.1553   -1.5603    0.0000 C   0  0  0  0  0  0  0  0  0  0  0  0
   -0.1553   -0.7353    0.0000 C   0  0  0  0  0  0  0  0  0  0  0  0
   -0.8698   -1.9728    0.0000 C   0  0  0  0  0  0  0  0  0  0  0  0
   -0.8698   -2.7978    0.0000 C   0  0  0  0  0  0  0  0  0  0  0  0
   -0.1553   -3.2103    0.0000 C   0  0  0  0  0  0  0  0  0  0  0  0
   -0.1553   -4.0353    0.0000 C   0  0  0  0  0  0  0  0  0  0  0  0
   -0.8698   -4.4478    0.0000 N   0  0  0  0  0  0  0  0  0  0  0  0
   -0.8698   -5.2728    0.0000 C   0  0  0  0  0  0  0  0  0  0  0  0
   -1.5843   -5.6853    0.0000 C   0  0  0  0  0  0  0  0  0  0  0  0
   -1.5843   -6.5103    0.0000 C   0  0  0  0  0  0  0  0  0  0  0  0
   -0.8698   -6.9228    0.0000 C   0  0  0  0  0  0  0  0  0  0  0  0
   -0.8698   -7.7478    0.0000 S   0  0  0  0  0  0  0  0  0  0  0  0
   -0.8698   -8.5728    0.0000 O   0  0  0  0  0  0  0  0  0  0  0  0
   -1.6948   -7.7478    0.0000 O   0  0  0  0  0  0  0  0  0  0  0  0
   -0.0448   -7.7478    0.0000 O   0  0  0  0  0  0  0  0  0  0  0  0
   -0.1553   -6.5103    0.0000 C   0  0  0  0  0  0  0  0  0  0  0  0
   -0.1553   -5.6853    0.0000 C   0  0  0  0  0  0  0  0  0  0  0  0
    0.5591   -4.4478    0.0000 O   0  0  0  0  0  0  0  0  0  0  0  0
    0.5591   -2.7978    0.0000 C   0  0  0  0  0  0  0  0  0  0  0  0
  1  2  1  0  0  0  0
  2  3  2  0  0  0  0
  2  4  1  0  0  0  0
  5  4  2  0  0  0  0
  5  6  1  0  0  0  0
  7  5  1  0  0  0  0
  8  7  2  0  0  0  0
  9  8  1  0  0  0  0
  9 10  1  0  0  0  0
 10 11  1  0  0  0  0
 11 12  1  0  0  0  0
 13 12  2  0  0  0  0
 14 13  1  0  0  0  0
 15 14  2  0  0  0  0
 15 16  1  0  0  0  0
 16 17  1  0  0  0  0
 16 18  2  0  0  0  0
 16 19  2  0  0  0  0
 20 15  1  0  0  0  0
 21 20  2  0  0  0  0
 12 21  1  0  0  0  0
 10 22  2  0  0  0  0
 23  9  2  0  0  0  0
  4 23  1  0  0  0  0
M  CHG  2   1  -1   2   1
M  END
> <RowID>
586

> <Original_SMILES>
[Na+].CC1C=CC(=CC=1[N+]([O-])=O)C(=O)NC1C=CC(=CC=1)S([O-])(=O)=O

> <Canonical_QSARr>
CC1C=CC(=CC=1[N+]([O-])=O)C(=O)NC1C=CC(=CC=1)S(O)(=O)=O

> <InChI_Code_QSARr>
InChI=1S/C14H12N2O6S/c1-9-2-3-10(8-13(9)16(18)19)14(17)15-11-4-6-12(7-5-11)23(20,21)22/h2-8H,1H3,(H,15,17)(H,20,21,22)

> <InChI Key_QSARr>
RLVVHEISMLHVND-UHFFFAOYSA-N

> <Salt_Solvent>
[Na+]

> <Salt_Solvent_ID>
110

> <Number of connected components>
2

$$$$
Molecule_587
  Mrv2316 01072400032D          

 13 12  0  0  0  0            999 V2000
    2.2836    2.1434    0.0000 C   0  0  0  0  0  0  0  0  0  0  0  0
    2.9980    2.5559    0.0000 C   0  0  0  0  0  0  0  0  0  0  0  0
    3.7125    2.1434    0.0000 C   0  0  0  0  0  0  0  0  0  0  0  0
    4.4270    2.5559    0.0000 C   0  0  0  0  0  0  0  0  0  0  0  0
    5.1414    2.1434    0.0000 C   0  0  0  0  0  0  0  0  0  0  0  0
    5.8559    2.5559    0.0000 C   0  0  0  0  0  0  0  0  0  0  0  0
    6.5704    2.1434    0.0000 C   0  0  0  0  0  0  0  0  0  0  0  0
    7.2849    2.5559    0.0000 C   0  0  0  0  0  0  0  0  0  0  0  0
    7.9993    2.1434    0.0000 C   0  0  0  0  0  0  0  0  0  0  0  0
    8.7138    2.5559    0.0000 C   0  0  0  0  0  0  0  0  0  0  0  0
    9.4283    2.1434    0.0000 C   0  0  0  0  0  0  0  0  0  0  0  0
   10.1427    2.5559    0.0000 C   0  0  0  0  0  0  0  0  0  0  0  0
   10.1427    3.3809    0.0000 O   0  0  0  0  0  0  0  0  0  0  0  0
  1  2  1  0  0  0  0
  2  3  1  0  0  0  0
  3  4  1  0  0  0  0
  4  5  1  0  0  0  0
  5  6  1  0  0  0  0
  6  7  1  0  0  0  0
  7  8  1  0  0  0  0
  8  9  1  0  0  0  0
 10  9  1  4  0  0  0
 10 11  2  0  0  0  0
 11 12  1  0  0  0  0
 12 13  2  0  0  0  0
M  END
> <RowID>
587

> <Original_SMILES>
CCCCCCCCCC=CC=O

> <Canonical_QSARr>
CCCCCCCCCC=CC=O

> <InChI_Code_QSARr>
InChI=1S/C12H22O/c1-2-3-4-5-6-7-8-9-10-11-12-13/h10-12H,2-9H2,1H3

> <InChI Key_QSARr>
SSNZFFBDIMUILS-UHFFFAOYSA-N

> <Salt_Solvent>


> <Salt_Solvent_ID>
0

> <Number of connected components>
1

$$$$
Molecule_588
  Mrv2316 01072400032D          

 15 14  0  0  0  0            999 V2000
    0.1105   -3.7125    0.0000 C   0  0  0  0  0  0  0  0  0  0  0  0
    0.8250   -3.3000    0.0000 C   0  0  0  0  0  0  0  0  0  0  0  0
    0.8250   -2.4750    0.0000 C   0  0  0  0  0  0  0  0  0  0  0  0
    1.6500   -2.4750    0.0000 F   0  0  0  0  0  0  0  0  0  0  0  0
   -0.0000   -2.4750    0.0000 F   0  0  0  0  0  0  0  0  0  0  0  0
    0.8250   -1.6500    0.0000 C   0  0  0  0  0  0  0  0  0  0  0  0
    1.6500   -1.6500    0.0000 F   0  0  0  0  0  0  0  0  0  0  0  0
   -0.0000   -1.6500    0.0000 F   0  0  0  0  0  0  0  0  0  0  0  0
    0.8250   -0.8250    0.0000 C   0  0  0  0  0  0  0  0  0  0  0  0
    1.6500   -0.8250    0.0000 F   0  0  0  0  0  0  0  0  0  0  0  0
   -0.0000   -0.8250    0.0000 F   0  0  0  0  0  0  0  0  0  0  0  0
    0.8250    0.0000    0.0000 C   0  0  0  0  0  0  0  0  0  0  0  0
    0.8250    0.8250    0.0000 F   0  0  0  0  0  0  0  0  0  0  0  0
    1.6500   -0.0000    0.0000 F   0  0  0  0  0  0  0  0  0  0  0  0
   -0.0000    0.0000    0.0000 I   0  0  0  0  0  0  0  0  0  0  0  0
  1  2  2  0  0  0  0
  2  3  1  0  0  0  0
  3  4  1  0  0  0  0
  3  5  1  0  0  0  0
  3  6  1  0  0  0  0
  6  7  1  0  0  0  0
  6  8  1  0  0  0  0
  6  9  1  0  0  0  0
  9 10  1  0  0  0  0
  9 11  1  0  0  0  0
  9 12  1  0  0  0  0
 12 13  1  0  0  0  0
 12 14  1  0  0  0  0
 12 15  1  0  0  0  0
M  END
> <RowID>
588

> <Original_SMILES>
C=CC(F)(F)C(F)(F)C(F)(F)C(F)(F)I

> <Canonical_QSARr>
C=CC(F)(F)C(F)(F)C(F)(F)C(F)(F)I

> <InChI_Code_QSARr>
InChI=1S/C6H3F8I/c1-2-3(7,8)4(9,10)5(11,12)6(13,14)15/h2H,1H2

> <InChI Key_QSARr>
QZXYRRIBHBIXQN-UHFFFAOYSA-N

> <Salt_Solvent>


> <Salt_Solvent_ID>
0

> <Number of connected components>
1

$$$$
Molecule_589
  Mrv2316 01072400032D          

 30 33  0  0  0  0            999 V2000
    3.5392   -0.5641    0.0000 C   0  0  0  0  0  0  0  0  0  0  0  0
    2.7187   -0.6503    0.0000 C   0  0  0  0  0  0  0  0  0  0  0  0
    2.3832   -1.4040    0.0000 C   0  0  0  0  0  0  0  0  0  0  0  0
    1.5627   -1.4902    0.0000 C   0  0  0  0  0  0  0  0  0  0  0  0
    1.0778   -0.8228    0.0000 C   0  0  0  0  0  0  0  0  0  0  0  0
    1.3327   -0.0382    0.0000 N   0  0  0  0  0  0  0  0  0  0  0  0
    0.6653    0.4467    0.0000 C   0  0  0  0  0  0  0  0  0  0  0  0
    0.6653    1.2717    0.0000 Cl  0  0  0  0  0  0  0  0  0  0  0  0
   -0.0022   -0.0382    0.0000 C   0  0  0  0  0  0  0  0  0  0  0  0
   -0.7868    0.2168    0.0000 C   0  0  0  0  0  0  0  0  0  0  0  0
   -1.3999   -0.3353    0.0000 O   0  0  0  0  0  0  0  0  0  0  0  0
    0.2528   -0.8228    0.0000 N   0  0  0  0  0  0  0  0  0  0  0  0
   -0.2322   -1.4902    0.0000 C   0  0  0  0  0  0  0  0  0  0  0  0
    0.1034   -2.2439    0.0000 C   0  0  0  0  0  0  0  0  0  0  0  0
   -0.3815   -2.9114    0.0000 C   0  0  0  0  0  0  0  0  0  0  0  0
   -0.0460   -3.6650    0.0000 C   0  0  0  0  0  0  0  0  0  0  0  0
    0.7745   -3.7513    0.0000 C   0  0  0  0  0  0  0  0  0  0  0  0
    1.1101   -4.5049    0.0000 C   0  0  0  0  0  0  0  0  0  0  0  0
    0.6252   -5.1724    0.0000 C   0  0  0  0  0  0  0  0  0  0  0  0
    0.9607   -5.9261    0.0000 C   0  0  0  0  0  0  0  0  0  0  0  0
    1.7812   -6.0123    0.0000 C   0  0  0  0  0  0  0  0  0  0  0  0
    2.2661   -5.3449    0.0000 C   0  0  0  0  0  0  0  0  0  0  0  0
    1.9306   -4.5912    0.0000 C   0  0  0  0  0  0  0  0  0  0  0  0
    2.4155   -3.9237    0.0000 C   0  0  0  0  0  0  0  0  0  0  0  0
    3.2405   -3.9237    0.0000 N   0  0  0  0  0  0  0  0  0  0  0  0
    3.4954   -3.1391    0.0000 N   0  0  0  0  0  0  0  0  0  0  0  0
    2.8280   -2.6542    0.0000 N   0  0  0  0  0  0  0  0  0  0  0  0
    2.1605   -3.1391    0.0000 N   0  0  0  0  0  0  0  0  0  0  0  0
    1.2594   -3.0838    0.0000 C   0  0  0  0  0  0  0  0  0  0  0  0
    0.9239   -2.3302    0.0000 C   0  0  0  0  0  0  0  0  0  0  0  0
  1  2  1  0  0  0  0
  2  3  1  0  0  0  0
  3  4  1  0  0  0  0
  4  5  1  0  0  0  0
  6  5  2  0  0  0  0
  7  6  1  0  0  0  0
  7  8  1  0  0  0  0
  9  7  2  0  0  0  0
  9 10  1  0  0  0  0
 10 11  1  0  0  0  0
 12  9  1  0  0  0  0
  5 12  1  0  0  0  0
 12 13  1  0  0  0  0
 13 14  1  0  0  0  0
 15 14  1  0  0  0  0
 16 15  2  0  0  0  0
 17 16  1  0  0  0  0
 17 18  1  0  0  0  0
 19 18  2  0  0  0  0
 20 19  1  0  0  0  0
 21 20  2  0  0  0  0
 22 21  1  0  0  0  0
 23 22  2  0  0  0  0
 18 23  1  0  0  0  0
 23 24  1  0  0  0  0
 25 24  1  0  0  0  0
 26 25  1  0  0  0  0
 27 26  2  0  0  0  0
 28 27  1  0  0  0  0
 24 28  2  0  0  0  0
 29 17  2  0  0  0  0
 30 29  1  0  0  0  0
 14 30  2  0  0  0  0
M  END
> <RowID>
589

> <Original_SMILES>
CCCCC1=NC(Cl)=C(CO)N1CC1C=CC(=CC=1)C1=CC=CC=C1C1NN=NN=1

> <Canonical_QSARr>
CCCCC1=NC(Cl)=C(CO)N1CC1C=CC(=CC=1)C1=CC=CC=C1C1NN=NN=1

> <InChI_Code_QSARr>
InChI=1S/C22H23ClN6O/c1-2-3-8-20-24-21(23)19(14-30)29(20)13-15-9-11-16(12-10-15)17-6-4-5-7-18(17)22-25-27-28-26-22/h4-7,9-12,30H,2-3,8,13-14H2,1H3,(H,25,26,27,28)

> <InChI Key_QSARr>
PSIFNNKUMBGKDQ-UHFFFAOYSA-N

> <Salt_Solvent>


> <Salt_Solvent_ID>
0

> <Number of connected components>
1

$$$$
Molecule_591
  Mrv2316 01072400032D          

 16 17  0  0  0  0            999 V2000
    5.1799   -2.1656    0.0000 F   0  0  0  0  0  0  0  0  0  0  0  0
    4.4654   -2.5781    0.0000 C   0  0  0  0  0  0  0  0  0  0  0  0
    3.7510   -2.1656    0.0000 C   0  0  0  0  0  0  0  0  0  0  0  0
    3.7510   -1.3406    0.0000 C   0  0  0  0  0  0  0  0  0  0  0  0
    3.0365   -0.9281    0.0000 C   0  0  0  0  0  0  0  0  0  0  0  0
    3.0365   -0.1031    0.0000 C   0  0  0  0  0  0  0  0  0  0  0  0
    2.3220    0.3094    0.0000 C   0  0  0  0  0  0  0  0  0  0  0  0
    1.6076   -0.1031    0.0000 C   0  0  0  0  0  0  0  0  0  0  0  0
    1.6076   -0.9281    0.0000 C   0  0  0  0  0  0  0  0  0  0  0  0
    2.3220   -1.3406    0.0000 C   0  0  0  0  0  0  0  0  0  0  0  0
    2.3220   -2.1656    0.0000 Cl  0  0  0  0  0  0  0  0  0  0  0  0
    3.0365   -2.5781    0.0000 N   0  0  0  0  0  0  0  0  0  0  0  0
    3.0365   -3.4031    0.0000 C   0  0  0  0  0  0  0  0  0  0  0  0
    3.7510   -3.8156    0.0000 N   0  0  0  0  0  0  0  0  0  0  0  0
    4.4654   -3.4031    0.0000 C   0  0  0  0  0  0  0  0  0  0  0  0
    5.1799   -3.8156    0.0000 Cl  0  0  0  0  0  0  0  0  0  0  0  0
  1  2  1  0  0  0  0
  3  2  1  0  0  0  0
  3  4  1  0  0  0  0
  4  5  1  0  0  0  0
  6  5  2  0  0  0  0
  7  6  1  0  0  0  0
  8  7  2  0  0  0  0
  9  8  1  0  0  0  0
 10  9  2  0  0  0  0
  5 10  1  0  0  0  0
 10 11  1  0  0  0  0
 12  3  2  0  0  0  0
 13 12  1  0  0  0  0
 14 13  2  0  0  0  0
 15 14  1  0  0  0  0
  2 15  2  0  0  0  0
 15 16  1  0  0  0  0
M  END
> <RowID>
591

> <Original_SMILES>
FC1C(CC2=CC=CC=C2Cl)=NC=NC=1Cl

> <Canonical_QSARr>
FC1C(CC2=CC=CC=C2Cl)=NC=NC=1Cl

> <InChI_Code_QSARr>
InChI=1S/C11H7Cl2FN2/c12-8-4-2-1-3-7(8)5-9-10(14)11(13)16-6-15-9/h1-4,6H,5H2

> <InChI Key_QSARr>
QUPCVYNKLSILKS-UHFFFAOYSA-N

> <Salt_Solvent>


> <Salt_Solvent_ID>
0

> <Number of connected components>
1

$$$$
Molecule_592
  Mrv2316 01072400032D          

 12 11  0  0  0  0            999 V2000
    3.3000    1.4289    0.0000 C   0  0  0  0  0  0  0  0  0  0  0  0
    2.4750    1.4289    0.0000 C   0  0  0  0  0  0  0  0  0  0  0  0
    2.4750    2.2539    0.0000 C   0  0  0  0  0  0  0  0  0  0  0  0
    2.4750    0.6039    0.0000 C   0  0  0  0  0  0  0  0  0  0  0  0
    1.6500    1.4289    0.0000 C   0  0  0  0  0  0  0  0  0  0  0  0
    1.2375    0.7145    0.0000 C   0  0  0  0  0  0  0  0  0  0  0  0
    0.5230    1.1270    0.0000 C   0  0  0  0  0  0  0  0  0  0  0  0
    1.9520    0.3020    0.0000 C   0  0  0  0  0  0  0  0  0  0  0  0
    0.8250   -0.0000    0.0000 C   0  0  0  0  0  0  0  0  0  0  0  0
    0.0000   -0.0000    0.0000 C   0  0  0  0  0  0  0  0  0  0  0  0
   -0.4125   -0.7145    0.0000 C   0  0  0  0  0  0  0  0  0  0  0  0
   -0.4125    0.7145    0.0000 C   0  0  0  0  0  0  0  0  0  0  0  0
  1  2  1  0  0  0  0
  2  3  1  0  0  0  0
  2  4  1  0  0  0  0
  2  5  1  0  0  0  0
  5  6  1  0  0  0  0
  6  7  1  0  0  0  0
  6  8  1  0  0  0  0
  6  9  1  0  0  0  0
  9 10  2  0  0  0  0
 10 11  1  0  0  0  0
 10 12  1  0  0  0  0
M  END
> <RowID>
592

> <Original_SMILES>
CC(C)(C)CC(C)(C)C=C(C)C

> <Canonical_QSARr>
CC(C)(C)CC(C)(C)C=C(C)C

> <InChI_Code_QSARr>
InChI=1S/C12H24/c1-10(2)8-12(6,7)9-11(3,4)5/h8H,9H2,1-7H3

> <InChI Key_QSARr>
DRHABPMHZRIRAH-UHFFFAOYSA-N

> <Salt_Solvent>


> <Salt_Solvent_ID>
0

> <Number of connected components>
1

$$$$
Molecule_594
  Mrv2316 01072400032D          

 15 14  0  0  0  0            999 V2000
    4.2355    3.2704    0.0000 C   0  0  0  0  0  0  0  0  0  0  0  0
    4.9500    2.8579    0.0000 C   0  0  0  0  0  0  0  0  0  0  0  0
    4.9500    2.0329    0.0000 O   0  0  0  0  0  0  0  0  0  0  0  0
    5.6645    3.2704    0.0000 C   0  0  0  0  0  0  0  0  0  0  0  0
    6.3789    2.8579    0.0000 C   0  0  0  0  0  0  0  0  0  0  0  0
    6.3789    2.0329    0.0000 O   0  0  0  0  0  0  0  0  0  0  0  0
    7.0934    3.2704    0.0000 O   0  0  0  0  0  0  0  0  0  0  0  0
    7.8079    2.8579    0.0000 C   0  0  0  0  0  0  0  0  0  0  0  0
    8.5224    3.2704    0.0000 C   0  0  0  0  0  0  0  0  0  0  0  0
    9.2368    2.8579    0.0000 O   0  0  0  0  0  0  0  0  0  0  0  0
    9.9513    3.2704    0.0000 C   0  0  0  0  0  0  0  0  0  0  0  0
    9.9513    4.0954    0.0000 O   0  0  0  0  0  0  0  0  0  0  0  0
   10.6658    2.8579    0.0000 C   0  0  0  0  0  0  0  0  0  0  0  0
   11.3802    3.2704    0.0000 C   0  0  0  0  0  0  0  0  0  0  0  0
   10.6658    2.0329    0.0000 C   0  0  0  0  0  0  0  0  0  0  0  0
  1  2  1  0  0  0  0
  2  3  2  0  0  0  0
  2  4  1  0  0  0  0
  4  5  1  0  0  0  0
  5  6  2  0  0  0  0
  5  7  1  0  0  0  0
  7  8  1  0  0  0  0
  8  9  1  0  0  0  0
  9 10  1  0  0  0  0
 10 11  1  0  0  0  0
 11 12  2  0  0  0  0
 11 13  1  0  0  0  0
 13 14  1  0  0  0  0
 13 15  2  0  0  0  0
M  END
> <RowID>
594

> <Original_SMILES>
CC(=O)CC(=O)OCCOC(=O)C(C)=C

> <Canonical_QSARr>
CC(=O)CC(=O)OCCOC(=O)C(C)=C

> <InChI_Code_QSARr>
InChI=1S/C10H14O5/c1-7(2)10(13)15-5-4-14-9(12)6-8(3)11/h1,4-6H2,2-3H3

> <InChI Key_QSARr>
IBDVWXAVKPRHCU-UHFFFAOYSA-N

> <Salt_Solvent>


> <Salt_Solvent_ID>
0

> <Number of connected components>
1

$$$$
Molecule_595
  Mrv2316 01072400032D          

 14 16  0  0  0  0            999 V2000
    0.1175   -3.1810    0.0000 O   0  0  0  0  0  0  0  0  0  0  0  0
    0.6695   -2.5679    0.0000 C   0  0  0  0  0  0  0  0  0  0  0  0
    1.4765   -2.7395    0.0000 C   0  0  0  0  0  0  0  0  0  0  0  0
    2.0285   -2.1264    0.0000 C   0  0  0  0  0  0  0  0  0  0  0  0
    2.8535   -2.1264    0.0000 C   0  0  0  0  0  0  0  0  0  0  0  0
    3.4056   -2.7395    0.0000 C   0  0  0  0  0  0  0  0  0  0  0  0
    4.2125   -2.5679    0.0000 C   0  0  0  0  0  0  0  0  0  0  0  0
    4.4675   -1.7833    0.0000 C   0  0  0  0  0  0  0  0  0  0  0  0
    3.9154   -1.1702    0.0000 C   0  0  0  0  0  0  0  0  0  0  0  0
    3.1085   -1.3418    0.0000 C   0  0  0  0  0  0  0  0  0  0  0  0
    2.4410   -0.8568    0.0000 N   0  0  0  0  0  0  0  0  0  0  0  0
    1.7736   -1.3418    0.0000 C   0  0  0  0  0  0  0  0  0  0  0  0
    0.9666   -1.1702    0.0000 C   0  0  0  0  0  0  0  0  0  0  0  0
    0.4146   -1.7833    0.0000 C   0  0  0  0  0  0  0  0  0  0  0  0
  1  2  1  0  0  0  0
  3  2  1  0  0  0  0
  4  3  1  0  0  0  0
  4  5  1  0  0  0  0
  6  5  2  0  0  0  0
  7  6  1  0  0  0  0
  8  7  2  0  0  0  0
  9  8  1  0  0  0  0
 10  9  2  0  0  0  0
  5 10  1  0  0  0  0
 10 11  1  0  0  0  0
 11 12  1  0  0  0  0
 12  4  2  0  0  0  0
 13 12  1  0  0  0  0
 14 13  1  0  0  0  0
  2 14  1  0  0  0  0
M  END
> <RowID>
595

> <Original_SMILES>
OC1CC2C3=CC=CC=C3NC=2CC1

> <Canonical_QSARr>
OC1CC2C3=CC=CC=C3NC=2CC1

> <InChI_Code_QSARr>
InChI=1S/C12H13NO/c14-8-5-6-12-10(7-8)9-3-1-2-4-11(9)13-12/h1-4,8,13-14H,5-7H2

> <InChI Key_QSARr>
COPGJLUCUMWXTH-UHFFFAOYSA-N

> <Salt_Solvent>


> <Salt_Solvent_ID>
0

> <Number of connected components>
1

$$$$
Molecule_596
  Mrv2316 01072400032D          

  4  3  0  0  0  0            999 V2000
    0.8250   -0.0000    0.0000 C   0  0  0  0  0  0  0  0  0  0  0  0
    1.2375    0.7145    0.0000 O   0  0  0  0  0  0  0  0  0  0  0  0
    1.2375   -0.7145    0.0000 O   0  0  0  0  0  0  0  0  0  0  0  0
    0.0000   -0.0000    0.0000 O   0  0  0  0  0  0  0  0  0  0  0  0
  1  2  1  0  0  0  0
  1  3  2  0  0  0  0
  1  4  1  0  0  0  0
M  END
> <RowID>
596

> <Original_SMILES>
[Mn+2].[O-]C([O-])=O

> <Canonical_QSARr>
OC(O)=O

> <InChI_Code_QSARr>
InChI=1S/CH2O3/c2-1(3)4/h(H2,2,3,4)

> <InChI Key_QSARr>
BVKZGUZCCUSVTD-UHFFFAOYSA-N

> <Salt_Solvent>
[Mn+2]

> <Salt_Solvent_ID>
250

> <Number of connected components>
2

$$$$
Molecule_597
  Mrv2316 01072400032D          

 32 37  0  0  0  0            999 V2000
    4.5466   -0.5086    0.0000 C   0  0  0  0  0  0  0  0  0  0  0  0
    4.8269    0.2673    0.0000 C   0  0  0  0  0  0  0  0  0  0  0  0
    5.3587   -0.3634    0.0000 C   0  0  0  0  0  0  0  0  0  0  0  0
    6.1708   -0.2182    0.0000 C   0  0  0  0  0  0  0  0  0  0  0  0
    6.7027   -0.8489    0.0000 N   0  0  0  0  0  0  0  0  0  0  0  0
    6.4224   -1.6248    0.0000 C   0  0  0  0  0  0  0  0  0  0  0  0
    6.9542   -2.2555    0.0000 C   0  0  0  0  0  0  0  0  0  0  0  0
    7.7663   -2.1103    0.0000 O   0  0  0  0  0  0  0  0  0  0  0  0
    8.0466   -1.3344    0.0000 C   0  0  0  0  0  0  0  0  0  0  0  0
    7.5148   -0.7037    0.0000 C   0  0  0  0  0  0  0  0  0  0  0  0
    6.4511    0.5577    0.0000 C   0  0  0  0  0  0  0  0  0  0  0  0
    7.2633    0.7029    0.0000 O   0  0  0  0  0  0  0  0  0  0  0  0
    5.9193    1.1884    0.0000 C   0  0  0  0  0  0  0  0  0  0  0  0
    5.1072    1.0432    0.0000 C   0  0  0  0  0  0  0  0  0  0  0  0
    4.5754    1.6739    0.0000 C   0  0  0  0  0  0  0  0  0  0  0  0
    3.7633    1.5287    0.0000 C   0  0  0  0  0  0  0  0  0  0  0  0
    3.4830    0.7528    0.0000 C   0  0  0  0  0  0  0  0  0  0  0  0
    4.0148    0.1221    0.0000 C   0  0  0  0  0  0  0  0  0  0  0  0
    3.7345   -0.6539    0.0000 C   0  0  0  0  0  0  0  0  0  0  0  0
    2.9224   -0.7991    0.0000 C   0  0  0  0  0  0  0  0  0  0  0  0
    2.3905   -0.1684    0.0000 C   0  0  0  0  0  0  0  0  0  0  0  0
    2.0307   -0.9107    0.0000 C   0  0  0  0  0  0  0  0  0  0  0  0
    2.6708    0.6076    0.0000 C   0  0  0  0  0  0  0  0  0  0  0  0
    2.0195    1.1139    0.0000 C   0  0  0  0  0  0  0  0  0  0  0  0
    1.3367    0.6509    0.0000 C   0  0  0  0  0  0  0  0  0  0  0  0
    0.5607    0.9312    0.0000 N   0  0  0  0  0  0  0  0  0  0  0  0
    0.3314    1.7237    0.0000 C   0  0  0  0  0  0  0  0  0  0  0  0
   -0.4931    1.7505    0.0000 C   0  0  0  0  0  0  0  0  0  0  0  0
   -0.7734    0.9746    0.0000 C   0  0  0  0  0  0  0  0  0  0  0  0
   -0.1221    0.4683    0.0000 C   0  0  0  0  0  0  0  0  0  0  0  0
    1.5660   -0.1416    0.0000 C   0  0  0  0  0  0  0  0  0  0  0  0
    1.0596   -0.7929    0.0000 O   0  0  0  0  0  0  0  0  0  0  0  0
  1  2  1  0  0  0  0
  3  2  1  0  0  0  0
  4  3  1  0  0  0  0
  4  5  1  0  0  0  0
  6  5  1  0  0  0  0
  7  6  1  0  0  0  0
  8  7  1  0  0  0  0
  9  8  1  0  0  0  0
 10  9  1  0  0  0  0
  5 10  1  0  0  0  0
 11  4  1  0  0  0  0
 11 12  1  0  0  0  0
 13 11  1  0  0  0  0
 14 13  1  0  0  0  0
 14  2  1  0  0  0  0
 15 14  1  0  0  0  0
 16 15  1  0  0  0  0
 17 16  1  0  0  0  0
 17 18  1  0  0  0  0
  2 18  1  0  0  0  0
 18 19  1  0  0  0  0
 19 20  1  0  0  0  0
 20 21  1  0  0  0  0
 21 22  1  0  0  0  0
 23 21  1  0  0  0  0
 23 17  1  0  0  0  0
 24 23  1  0  0  0  0
 25 24  1  0  0  0  0
 25 26  1  0  0  0  0
 27 26  1  0  0  0  0
 28 27  1  0  0  0  0
 29 28  1  0  0  0  0
 30 29  1  0  0  0  0
 26 30  1  0  0  0  0
 31 25  1  0  0  0  0
 21 31  1  0  0  0  0
 31 32  1  0  0  0  0
M  END
> <RowID>
597

> <Original_SMILES>
CC12CC(C(O)CC1CCC1C2CCC2(C)C1CC(C2O)N1CCCC1)N1CCOCC1

> <Canonical_QSARr>
CC12CC(C(O)CC1CCC1C2CCC2(C)C1CC(C2O)N1CCCC1)N1CCOCC1

> <InChI_Code_QSARr>
InChI=1S/C27H46N2O3/c1-26-8-7-20-19(21(26)16-22(25(26)31)28-9-3-4-10-28)6-5-18-15-24(30)23(17-27(18,20)2)29-11-13-32-14-12-29/h18-25,30-31H,3-17H2,1-2H3

> <InChI Key_QSARr>
YKHDYPFPUAWBIW-UHFFFAOYSA-N

> <Salt_Solvent>


> <Salt_Solvent_ID>
0

> <Number of connected components>
1

$$$$
Molecule_598
  Mrv2316 01072400032D          

 19 21  0  0  0  0            999 V2000
    2.7451   -3.9296    0.0000 O   0  0  0  0  0  0  0  0  0  0  0  0
    2.0306   -3.5171    0.0000 C   0  0  0  0  0  0  0  0  0  0  0  0
    2.0306   -2.6921    0.0000 N   0  0  0  0  0  0  0  0  0  0  0  0
    1.3161   -2.2796    0.0000 C   0  0  0  0  0  0  0  0  0  0  0  0
    1.3161   -1.4546    0.0000 C   0  0  0  0  0  0  0  0  0  0  0  0
    2.0306   -1.0421    0.0000 C   0  0  0  0  0  0  0  0  0  0  0  0
    2.0306   -0.2171    0.0000 C   0  0  0  0  0  0  0  0  0  0  0  0
    1.3161    0.1954    0.0000 C   0  0  0  0  0  0  0  0  0  0  0  0
    0.6017   -0.2171    0.0000 C   0  0  0  0  0  0  0  0  0  0  0  0
    0.6017   -1.0421    0.0000 C   0  0  0  0  0  0  0  0  0  0  0  0
    0.6017   -2.6921    0.0000 N   0  0  0  0  0  0  0  0  0  0  0  0
    0.6017   -3.5171    0.0000 C   0  0  0  0  0  0  0  0  0  0  0  0
   -0.1128   -3.9296    0.0000 C   0  0  0  0  0  0  0  0  0  0  0  0
   -0.8273   -3.5171    0.0000 C   0  0  0  0  0  0  0  0  0  0  0  0
   -1.5417   -3.9296    0.0000 C   0  0  0  0  0  0  0  0  0  0  0  0
   -1.5417   -4.7546    0.0000 C   0  0  0  0  0  0  0  0  0  0  0  0
   -0.8273   -5.1671    0.0000 C   0  0  0  0  0  0  0  0  0  0  0  0
   -0.1128   -4.7546    0.0000 C   0  0  0  0  0  0  0  0  0  0  0  0
    1.3161   -3.9296    0.0000 N   0  0  0  0  0  0  0  0  0  0  0  0
  1  2  2  0  0  0  0
  3  2  1  0  0  0  0
  4  3  2  0  0  0  0
  4  5  1  0  0  0  0
  6  5  1  0  0  0  0
  7  6  2  0  0  0  0
  8  7  1  0  0  0  0
  9  8  2  0  0  0  0
 10  9  1  0  0  0  0
  5 10  2  0  0  0  0
 11  4  1  0  0  0  0
 12 11  1  0  0  0  0
 12 13  1  0  0  0  0
 14 13  1  0  0  0  0
 15 14  2  0  0  0  0
 16 15  1  0  0  0  0
 17 16  2  0  0  0  0
 18 17  1  0  0  0  0
 13 18  2  0  0  0  0
 19 12  2  0  0  0  0
  2 19  1  0  0  0  0
M  END
> <RowID>
598

> <Original_SMILES>
O=C1N=C(NC(=N1)C1C=CC=CC=1)C1C=CC=CC=1

> <Canonical_QSARr>
O=C1N=C(NC(=N1)C1C=CC=CC=1)C1C=CC=CC=1

> <InChI_Code_QSARr>
InChI=1S/C15H11N3O/c19-15-17-13(11-7-3-1-4-8-11)16-14(18-15)12-9-5-2-6-10-12/h1-10H,(H,16,17,18,19)

> <InChI Key_QSARr>
KODLDJGSBFMSDG-UHFFFAOYSA-N

> <Salt_Solvent>


> <Salt_Solvent_ID>
0

> <Number of connected components>
1

$$$$
Molecule_600
  Mrv2316 01072400032D          

 13 12  0  0  0  0            999 V2000
   -0.1914   -2.3645    0.0000 O   0  0  0  0  0  0  0  0  0  0  0  0
    0.5230   -1.9520    0.0000 C   0  0  0  0  0  0  0  0  0  0  0  0
    1.2375   -2.3645    0.0000 O   0  0  0  0  0  0  0  0  0  0  0  0
    0.5230   -1.1270    0.0000 C   0  0  0  0  0  0  0  0  0  0  0  0
    1.2375   -0.7145    0.0000 C   0  0  0  0  0  0  0  0  0  0  0  0
    1.9520   -0.3020    0.0000 C   0  0  0  0  0  0  0  0  0  0  0  0
    2.6664   -0.7145    0.0000 C   0  0  0  0  0  0  0  0  0  0  0  0
    3.3809   -0.3020    0.0000 O   0  0  0  0  0  0  0  0  0  0  0  0
    2.6664   -1.5395    0.0000 O   0  0  0  0  0  0  0  0  0  0  0  0
    1.6500   -1.4290    0.0000 O   0  0  0  0  0  0  0  0  0  0  0  0
    0.8250   -0.0000    0.0000 C   0  0  0  0  0  0  0  0  0  0  0  0
    1.2375    0.7145    0.0000 O   0  0  0  0  0  0  0  0  0  0  0  0
   -0.0000   -0.0000    0.0000 O   0  0  0  0  0  0  0  0  0  0  0  0
  1  2  1  0  0  0  0
  2  3  2  0  0  0  0
  2  4  1  0  0  0  0
  4  5  1  0  0  0  0
  5  6  1  0  0  0  0
  6  7  1  0  0  0  0
  7  8  1  0  0  0  0
  7  9  2  0  0  0  0
  5 10  1  0  0  0  0
  5 11  1  0  0  0  0
 11 12  1  0  0  0  0
 11 13  2  0  0  0  0
M  END
> <RowID>
600

> <Original_SMILES>
[Bi+3].[O-]C(=O)C(O)(CC([O-])=O)CC([O-])=O

> <Canonical_QSARr>
OC(=O)C(O)(CC(O)=O)CC(O)=O

> <InChI_Code_QSARr>
InChI=1S/C6H8O7/c7-3(8)1-6(13,5(11)12)2-4(9)10/h13H,1-2H2,(H,7,8)(H,9,10)(H,11,12)

> <InChI Key_QSARr>
KRKNYBCHXYNGOX-UHFFFAOYSA-N

> <Salt_Solvent>
[Bi+3]

> <Salt_Solvent_ID>
830

> <Number of connected components>
2

$$$$
Molecule_601
  Mrv2316 01072400032D          

 19 20  0  0  0  0            999 V2000
    1.7298    0.9987    0.0000 O   0  0  0  0  0  0  0  0  0  0  0  0
    2.4442    0.5862    0.0000 C   0  0  0  0  0  0  0  0  0  0  0  0
    3.1587    0.9987    0.0000 C   0  0  0  0  0  0  0  0  0  0  0  0
    3.8732    0.5862    0.0000 Cl  0  0  0  0  0  0  0  0  0  0  0  0
    2.4442   -0.2388    0.0000 N   0  0  0  0  0  0  0  0  0  0  0  0
    1.7298   -0.6513    0.0000 C   0  0  0  0  0  0  0  0  0  0  0  0
    1.0153   -0.2388    0.0000 C   0  0  0  0  0  0  0  0  0  0  0  0
    1.0153    0.5862    0.0000 Cl  0  0  0  0  0  0  0  0  0  0  0  0
    0.3008   -0.6513    0.0000 C   0  0  0  0  0  0  0  0  0  0  0  0
    0.3008   -1.4763    0.0000 C   0  0  0  0  0  0  0  0  0  0  0  0
    1.0153   -1.8888    0.0000 C   0  0  0  0  0  0  0  0  0  0  0  0
    1.7298   -1.4763    0.0000 C   0  0  0  0  0  0  0  0  0  0  0  0
    2.4442   -1.8888    0.0000 Cl  0  0  0  0  0  0  0  0  0  0  0  0
    3.1587   -0.6513    0.0000 C   0  0  0  0  0  0  0  0  0  0  0  0
    3.1587   -1.4763    0.0000 C   0  0  0  0  0  0  0  0  0  0  0  0
    3.8732   -1.8888    0.0000 C   0  0  0  0  0  0  0  0  0  0  0  0
    4.5877   -1.4763    0.0000 C   0  0  0  0  0  0  0  0  0  0  0  0
    4.5877   -0.6513    0.0000 C   0  0  0  0  0  0  0  0  0  0  0  0
    3.8732   -0.2388    0.0000 C   0  0  0  0  0  0  0  0  0  0  0  0
  1  2  2  0  0  0  0
  2  3  1  0  0  0  0
  3  4  1  0  0  0  0
  2  5  1  0  0  0  0
  5  6  1  0  0  0  0
  7  6  1  0  0  0  0
  7  8  1  0  0  0  0
  9  7  2  0  0  0  0
 10  9  1  0  0  0  0
 11 10  2  0  0  0  0
 12 11  1  0  0  0  0
  6 12  2  0  0  0  0
 12 13  1  0  0  0  0
  5 14  1  0  0  0  0
 15 14  1  0  0  0  0
 16 15  2  0  0  0  0
 17 16  1  0  0  0  0
 18 17  2  0  0  0  0
 19 18  1  0  0  0  0
 14 19  2  0  0  0  0
M  END
> <RowID>
601

> <Original_SMILES>
O=C(CCl)N(C1C(Cl)=CC=CC=1Cl)C1C=CC=CC=1

> <Canonical_QSARr>
O=C(CCl)N(C1C(Cl)=CC=CC=1Cl)C1C=CC=CC=1

> <InChI_Code_QSARr>
InChI=1S/C14H10Cl3NO/c15-9-13(19)18(10-5-2-1-3-6-10)14-11(16)7-4-8-12(14)17/h1-8H,9H2

> <InChI Key_QSARr>
BPEUHDIEZQWRGC-UHFFFAOYSA-N

> <Salt_Solvent>


> <Salt_Solvent_ID>
0

> <Number of connected components>
1

$$$$
Molecule_602
  Mrv2316 01072400032D          

 20 20  0  0  0  0            999 V2000
   -3.8581    6.5175    0.0000 C   0  0  0  0  0  0  0  0  0  0  0  0
   -3.8581    5.6925    0.0000 C   0  0  0  0  0  0  0  0  0  0  0  0
   -3.1437    5.2800    0.0000 C   0  0  0  0  0  0  0  0  0  0  0  0
   -3.1437    4.4550    0.0000 C   0  0  0  0  0  0  0  0  0  0  0  0
   -2.4292    4.0425    0.0000 O   0  0  0  0  0  0  0  0  0  0  0  0
   -2.4292    3.2175    0.0000 C   0  0  0  0  0  0  0  0  0  0  0  0
   -3.1437    2.8050    0.0000 O   0  0  0  0  0  0  0  0  0  0  0  0
   -1.7147    2.8050    0.0000 C   0  0  0  0  0  0  0  0  0  0  0  0
   -1.7147    1.9800    0.0000 C   0  0  0  0  0  0  0  0  0  0  0  0
   -1.0002    1.5675    0.0000 C   0  0  0  0  0  0  0  0  0  0  0  0
   -0.2858    1.9800    0.0000 C   0  0  0  0  0  0  0  0  0  0  0  0
    0.4287    1.5675    0.0000 C   0  0  0  0  0  0  0  0  0  0  0  0
    0.4287    0.7425    0.0000 O   0  0  0  0  0  0  0  0  0  0  0  0
    1.1432    1.9800    0.0000 O   0  0  0  0  0  0  0  0  0  0  0  0
    1.8576    1.5675    0.0000 C   0  0  0  0  0  0  0  0  0  0  0  0
    2.5721    1.9800    0.0000 C   0  0  0  0  0  0  0  0  0  0  0  0
    3.2866    1.5675    0.0000 C   0  0  0  0  0  0  0  0  0  0  0  0
    4.0011    1.9800    0.0000 C   0  0  0  0  0  0  0  0  0  0  0  0
   -0.2858    2.8050    0.0000 C   0  0  0  0  0  0  0  0  0  0  0  0
   -1.0002    3.2175    0.0000 C   0  0  0  0  0  0  0  0  0  0  0  0
  1  2  1  0  0  0  0
  2  3  1  0  0  0  0
  3  4  1  0  0  0  0
  4  5  1  0  0  0  0
  5  6  1  0  0  0  0
  6  7  2  0  0  0  0
  6  8  1  0  0  0  0
  9  8  1  0  0  0  0
 10  9  2  0  0  0  0
 11 10  1  0  0  0  0
 11 12  1  0  0  0  0
 12 13  2  0  0  0  0
 12 14  1  0  0  0  0
 14 15  1  0  0  0  0
 15 16  1  0  0  0  0
 16 17  1  0  0  0  0
 17 18  1  0  0  0  0
 19 11  2  0  0  0  0
 20 19  1  0  0  0  0
  8 20  2  0  0  0  0
M  END
> <RowID>
602

> <Original_SMILES>
CCCCOC(=O)C1C=CC(=CC=1)C(=O)OCCCC

> <Canonical_QSARr>
CCCCOC(=O)C1C=CC(=CC=1)C(=O)OCCCC

> <InChI_Code_QSARr>
InChI=1S/C16H22O4/c1-3-5-11-19-15(17)13-7-9-14(10-8-13)16(18)20-12-6-4-2/h7-10H,3-6,11-12H2,1-2H3

> <InChI Key_QSARr>
LQLQDKBJAIILIQ-UHFFFAOYSA-N

> <Salt_Solvent>


> <Salt_Solvent_ID>
0

> <Number of connected components>
1

$$$$
Molecule_603
  Mrv2316 01072400032D          

 40 39  0  0  0  0            999 V2000
    0.4421    2.8579    0.0000 C   0  0  0  0  0  0  0  0  0  0  0  0
   -0.3829    2.8579    0.0000 C   0  0  0  0  0  0  0  0  0  0  0  0
   -0.7954    3.5723    0.0000 O   0  0  0  0  0  0  0  0  0  0  0  0
   -0.7954    2.1434    0.0000 O   0  0  0  0  0  0  0  0  0  0  0  0
   -0.3829    1.4289    0.0000 C   0  0  0  0  0  0  0  0  0  0  0  0
   -1.0974    1.0164    0.0000 C   0  0  0  0  0  0  0  0  0  0  0  0
   -1.8119    1.4289    0.0000 C   0  0  0  0  0  0  0  0  0  0  0  0
   -1.8119    2.2539    0.0000 O   0  0  0  0  0  0  0  0  0  0  0  0
   -2.5263    1.0164    0.0000 O   0  0  0  0  0  0  0  0  0  0  0  0
   -3.2408    1.4289    0.0000 C   0  0  0  0  0  0  0  0  0  0  0  0
   -3.9553    1.0164    0.0000 C   0  0  0  0  0  0  0  0  0  0  0  0
   -4.6697    1.4289    0.0000 C   0  0  0  0  0  0  0  0  0  0  0  0
   -5.3842    1.0164    0.0000 C   0  0  0  0  0  0  0  0  0  0  0  0
   -6.0987    1.4289    0.0000 C   0  0  0  0  0  0  0  0  0  0  0  0
   -6.8131    1.0164    0.0000 C   0  0  0  0  0  0  0  0  0  0  0  0
   -3.9553    0.1914    0.0000 C   0  0  0  0  0  0  0  0  0  0  0  0
   -4.6697   -0.2211    0.0000 C   0  0  0  0  0  0  0  0  0  0  0  0
    0.3316    1.8414    0.0000 C   0  0  0  0  0  0  0  0  0  0  0  0
    1.0460    1.4289    0.0000 C   0  0  0  0  0  0  0  0  0  0  0  0
    1.0460    0.6039    0.0000 O   0  0  0  0  0  0  0  0  0  0  0  0
    1.7605    1.8414    0.0000 O   0  0  0  0  0  0  0  0  0  0  0  0
    2.4750    1.4289    0.0000 C   0  0  0  0  0  0  0  0  0  0  0  0
    3.1894    1.8414    0.0000 C   0  0  0  0  0  0  0  0  0  0  0  0
    3.9039    1.4289    0.0000 C   0  0  0  0  0  0  0  0  0  0  0  0
    4.6184    1.8414    0.0000 C   0  0  0  0  0  0  0  0  0  0  0  0
    5.3329    1.4289    0.0000 C   0  0  0  0  0  0  0  0  0  0  0  0
    6.0473    1.8414    0.0000 C   0  0  0  0  0  0  0  0  0  0  0  0
    3.1894    2.6664    0.0000 C   0  0  0  0  0  0  0  0  0  0  0  0
    3.9039    3.0789    0.0000 C   0  0  0  0  0  0  0  0  0  0  0  0
    0.0296    0.7144    0.0000 C   0  0  0  0  0  0  0  0  0  0  0  0
    0.6970    0.2295    0.0000 O   0  0  0  0  0  0  0  0  0  0  0  0
   -0.3829   -0.0000    0.0000 O   0  0  0  0  0  0  0  0  0  0  0  0
    0.0296   -0.7145    0.0000 C   0  0  0  0  0  0  0  0  0  0  0  0
   -0.3829   -1.4290    0.0000 C   0  0  0  0  0  0  0  0  0  0  0  0
    0.0296   -2.1434    0.0000 C   0  0  0  0  0  0  0  0  0  0  0  0
    0.8546   -2.1434    0.0000 C   0  0  0  0  0  0  0  0  0  0  0  0
    1.2671   -2.8579    0.0000 C   0  0  0  0  0  0  0  0  0  0  0  0
    2.0921   -2.8579    0.0000 C   0  0  0  0  0  0  0  0  0  0  0  0
   -1.2079   -1.4290    0.0000 C   0  0  0  0  0  0  0  0  0  0  0  0
   -1.6204   -0.7145    0.0000 C   0  0  0  0  0  0  0  0  0  0  0  0
  1  2  1  0  0  0  0
  2  3  2  0  0  0  0
  2  4  1  0  0  0  0
  4  5  1  0  0  0  0
  5  6  1  0  0  0  0
  6  7  1  0  0  0  0
  7  8  2  0  0  0  0
  7  9  1  0  0  0  0
  9 10  1  0  0  0  0
 10 11  1  0  0  0  0
 11 12  1  0  0  0  0
 12 13  1  0  0  0  0
 13 14  1  0  0  0  0
 14 15  1  0  0  0  0
 11 16  1  0  0  0  0
 16 17  1  0  0  0  0
  5 18  1  0  0  0  0
 18 19  1  0  0  0  0
 19 20  2  0  0  0  0
 19 21  1  0  0  0  0
 21 22  1  0  0  0  0
 22 23  1  0  0  0  0
 23 24  1  0  0  0  0
 24 25  1  0  0  0  0
 25 26  1  0  0  0  0
 26 27  1  0  0  0  0
 23 28  1  0  0  0  0
 28 29  1  0  0  0  0
  5 30  1  0  0  0  0
 30 31  2  0  0  0  0
 30 32  1  0  0  0  0
 32 33  1  0  0  0  0
 33 34  1  0  0  0  0
 34 35  1  0  0  0  0
 35 36  1  0  0  0  0
 36 37  1  0  0  0  0
 37 38  1  0  0  0  0
 34 39  1  0  0  0  0
 39 40  1  0  0  0  0
M  END
> <RowID>
603

> <Original_SMILES>
CC(=O)OC(CC(=O)OCC(CCCC)CC)(CC(=O)OCC(CCCC)CC)C(=O)OCC(CCCC)CC

> <Canonical_QSARr>
CC(=O)OC(CC(=O)OCC(CCCC)CC)(CC(=O)OCC(CCCC)CC)C(=O)OCC(CCCC)CC

> <InChI_Code_QSARr>
InChI=1S/C32H58O8/c1-8-14-17-26(11-4)22-37-29(34)20-32(40-25(7)33,31(36)39-24-28(13-6)19-16-10-3)21-30(35)38-23-27(12-5)18-15-9-2/h26-28H,8-24H2,1-7H3

> <InChI Key_QSARr>
FRDNONBEXWDRDM-UHFFFAOYSA-N

> <Salt_Solvent>


> <Salt_Solvent_ID>
0

> <Number of connected components>
1

$$$$
Molecule_604
  Mrv2316 01072400032D          

  9  8  0  0  0  0            999 V2000
    1.7605    1.8414    0.0000 C   0  0  0  0  0  0  0  0  0  0  0  0
    2.4750    1.4289    0.0000 C   0  0  0  0  0  0  0  0  0  0  0  0
    2.4750    0.6039    0.0000 O   0  0  0  0  0  0  0  0  0  0  0  0
    3.1895    1.8414    0.0000 C   0  0  0  0  0  0  0  0  0  0  0  0
    3.9039    1.4289    0.0000 C   0  0  0  0  0  0  0  0  0  0  0  0
    3.9039    0.6039    0.0000 O   0  0  0  0  0  0  0  0  0  0  0  0
    4.6184    1.8414    0.0000 O   0  0  0  0  0  0  0  0  0  0  0  0
    5.3329    1.4289    0.0000 C   0  0  0  0  0  0  0  0  0  0  0  0
    6.0474    1.8414    0.0000 C   0  0  0  0  0  0  0  0  0  0  0  0
  1  2  1  0  0  0  0
  2  3  2  0  0  0  0
  2  4  1  0  0  0  0
  4  5  1  0  0  0  0
  5  6  2  0  0  0  0
  5  7  1  0  0  0  0
  7  8  1  0  0  0  0
  8  9  1  0  0  0  0
M  END
> <RowID>
604

> <Original_SMILES>
CC(=O)CC(=O)OCC

> <Canonical_QSARr>
CC(=O)CC(=O)OCC

> <InChI_Code_QSARr>
InChI=1S/C6H10O3/c1-3-9-6(8)4-5(2)7/h3-4H2,1-2H3

> <InChI Key_QSARr>
XYIBRDXRRQCHLP-UHFFFAOYSA-N

> <Salt_Solvent>


> <Salt_Solvent_ID>
0

> <Number of connected components>
1

$$$$
Molecule_605
  Mrv2316 01072400032D          

 13 12  0  0  0  0            999 V2000
    0.1105   -2.0625    0.0000 O   0  0  0  0  0  0  0  0  0  0  0  0
    0.1105   -1.2375    0.0000 C   0  0  0  0  0  0  0  0  0  0  0  0
   -0.6039   -0.8250    0.0000 O   0  0  0  0  0  0  0  0  0  0  0  0
    0.8250   -0.8250    0.0000 C   0  0  0  0  0  0  0  0  0  0  0  0
    0.8250   -0.0000    0.0000 C   0  0  0  0  0  0  0  0  0  0  0  0
    1.6500   -0.0000    0.0000 C   0  0  0  0  0  0  0  0  0  0  0  0
    2.0625   -0.7145    0.0000 O   0  0  0  0  0  0  0  0  0  0  0  0
    2.0625    0.7145    0.0000 O   0  0  0  0  0  0  0  0  0  0  0  0
    0.8250    0.8250    0.0000 C   0  0  0  0  0  0  0  0  0  0  0  0
    0.1105    1.2375    0.0000 C   0  0  0  0  0  0  0  0  0  0  0  0
   -0.6039    0.8250    0.0000 O   0  0  0  0  0  0  0  0  0  0  0  0
    0.1105    2.0625    0.0000 O   0  0  0  0  0  0  0  0  0  0  0  0
   -0.0000   -0.0000    0.0000 O   0  0  0  0  0  0  0  0  0  0  0  0
  1  2  1  0  0  0  0
  2  3  2  0  0  0  0
  2  4  1  0  0  0  0
  4  5  1  0  0  0  0
  5  6  1  0  0  0  0
  6  7  2  0  0  0  0
  6  8  1  0  0  0  0
  5  9  1  0  0  0  0
  9 10  1  0  0  0  0
 10 11  2  0  0  0  0
 10 12  1  0  0  0  0
  5 13  1  0  0  0  0
M  END
> <RowID>
605

> <Original_SMILES>
[Na+].[O-]C(=O)CC(O)(CC(O)=O)C(O)=O

> <Canonical_QSARr>
OC(=O)C(O)(CC(O)=O)CC(O)=O

> <InChI_Code_QSARr>
InChI=1S/C6H8O7/c7-3(8)1-6(13,5(11)12)2-4(9)10/h13H,1-2H2,(H,7,8)(H,9,10)(H,11,12)

> <InChI Key_QSARr>
KRKNYBCHXYNGOX-UHFFFAOYSA-N

> <Salt_Solvent>
[Na+]

> <Salt_Solvent_ID>
110

> <Number of connected components>
2

$$$$
Molecule_606
  Mrv2316 01072400032D          

 10  9  0  0  0  0            999 V2000
    1.0461    1.4289    0.0000 C   0  0  0  0  0  0  0  0  0  0  0  0
    1.7605    1.8414    0.0000 C   0  0  0  0  0  0  0  0  0  0  0  0
    1.7605    2.6664    0.0000 C   0  0  0  0  0  0  0  0  0  0  0  0
    2.4750    1.4289    0.0000 O   0  0  0  0  0  0  0  0  0  0  0  0
    3.1895    1.8414    0.0000 C   0  0  0  0  0  0  0  0  0  0  0  0
    3.9039    1.4289    0.0000 C   0  0  0  0  0  0  0  0  0  0  0  0
    4.6184    1.8414    0.0000 O   0  0  0  0  0  0  0  0  0  0  0  0
    5.3329    1.4289    0.0000 C   0  0  0  0  0  0  0  0  0  0  0  0
    6.0474    1.8414    0.0000 C   0  0  0  0  0  0  0  0  0  0  0  0
    5.3329    0.6039    0.0000 O   0  0  0  0  0  0  0  0  0  0  0  0
  1  2  1  0  0  0  0
  2  3  1  0  0  0  0
  2  4  1  0  0  0  0
  4  5  1  0  0  0  0
  5  6  1  0  0  0  0
  6  7  1  0  0  0  0
  7  8  1  0  0  0  0
  8  9  1  0  0  0  0
  8 10  2  0  0  0  0
M  END
> <RowID>
606

> <Original_SMILES>
CC(C)OCCOC(C)=O

> <Canonical_QSARr>
CC(C)OCCOC(C)=O

> <InChI_Code_QSARr>
InChI=1S/C7H14O3/c1-6(2)9-4-5-10-7(3)8/h6H,4-5H2,1-3H3

> <InChI Key_QSARr>
HCDJVEYJSSTYSW-UHFFFAOYSA-N

> <Salt_Solvent>


> <Salt_Solvent_ID>
0

> <Number of connected components>
1

$$$$
Molecule_607
  Mrv2316 01072400032D          

 47 46  0  0  0  0            999 V2000
    6.6309    6.4313    0.0000 C   0  0  0  0  0  0  0  0  0  0  0  0
    7.0434    5.7168    0.0000 N   0  3  0  0  0  0  0  0  0  0  0  0
    6.3289    5.3043    0.0000 C   0  0  0  0  0  0  0  0  0  0  0  0
    5.6144    5.7168    0.0000 C   0  0  0  0  0  0  0  0  0  0  0  0
    4.9000    5.3043    0.0000 O   0  0  0  0  0  0  0  0  0  0  0  0
    4.1855    5.7168    0.0000 C   0  0  0  0  0  0  0  0  0  0  0  0
    3.4710    5.3043    0.0000 C   0  0  0  0  0  0  0  0  0  0  0  0
    2.7566    5.7168    0.0000 C   0  0  0  0  0  0  0  0  0  0  0  0
    2.0421    5.3043    0.0000 C   0  0  0  0  0  0  0  0  0  0  0  0
    1.3276    5.7168    0.0000 C   0  0  0  0  0  0  0  0  0  0  0  0
    0.6131    5.3043    0.0000 C   0  0  0  0  0  0  0  0  0  0  0  0
   -0.1013    5.7168    0.0000 C   0  0  0  0  0  0  0  0  0  0  0  0
   -0.8158    5.3043    0.0000 C   0  0  0  0  0  0  0  0  0  0  0  0
   -1.5303    5.7168    0.0000 C   0  0  0  0  0  0  0  0  0  0  0  0
   -2.2447    5.3043    0.0000 C   0  0  0  0  0  0  0  0  0  0  0  0
   -2.9592    5.7168    0.0000 C   0  0  0  0  0  0  0  0  0  0  0  0
   -3.6737    5.3043    0.0000 C   0  0  0  0  0  0  0  0  0  0  0  0
   -4.3882    5.7168    0.0000 C   0  0  0  0  0  0  0  0  0  0  0  0
   -5.1026    5.3043    0.0000 C   0  0  0  0  0  0  0  0  0  0  0  0
   -5.8171    5.7168    0.0000 C   0  0  0  0  0  0  0  0  0  0  0  0
   -6.5316    5.3043    0.0000 C   0  0  0  0  0  0  0  0  0  0  0  0
   -7.2460    5.7168    0.0000 C   0  0  0  0  0  0  0  0  0  0  0  0
   -7.9605    5.3043    0.0000 C   0  0  0  0  0  0  0  0  0  0  0  0
    4.1855    6.5418    0.0000 O   0  0  0  0  0  0  0  0  0  0  0  0
    7.7578    6.1293    0.0000 C   0  0  0  0  0  0  0  0  0  0  0  0
    8.4723    5.7168    0.0000 C   0  0  0  0  0  0  0  0  0  0  0  0
    9.1868    6.1293    0.0000 O   0  0  0  0  0  0  0  0  0  0  0  0
    9.9013    5.7168    0.0000 C   0  0  0  0  0  0  0  0  0  0  0  0
   10.6157    6.1293    0.0000 C   0  0  0  0  0  0  0  0  0  0  0  0
   11.3302    5.7168    0.0000 C   0  0  0  0  0  0  0  0  0  0  0  0
   12.0447    6.1293    0.0000 C   0  0  0  0  0  0  0  0  0  0  0  0
   12.7591    5.7168    0.0000 C   0  0  0  0  0  0  0  0  0  0  0  0
   13.4736    6.1293    0.0000 C   0  0  0  0  0  0  0  0  0  0  0  0
   14.1881    5.7168    0.0000 C   0  0  0  0  0  0  0  0  0  0  0  0
   14.9026    6.1293    0.0000 C   0  0  0  0  0  0  0  0  0  0  0  0
   15.6170    5.7168    0.0000 C   0  0  0  0  0  0  0  0  0  0  0  0
   16.3315    6.1293    0.0000 C   0  0  0  0  0  0  0  0  0  0  0  0
   17.0460    5.7168    0.0000 C   0  0  0  0  0  0  0  0  0  0  0  0
   17.7604    6.1293    0.0000 C   0  0  0  0  0  0  0  0  0  0  0  0
   18.4749    5.7168    0.0000 C   0  0  0  0  0  0  0  0  0  0  0  0
   19.1894    6.1293    0.0000 C   0  0  0  0  0  0  0  0  0  0  0  0
   19.9039    5.7168    0.0000 C   0  0  0  0  0  0  0  0  0  0  0  0
   20.6183    6.1293    0.0000 C   0  0  0  0  0  0  0  0  0  0  0  0
   21.3328    5.7168    0.0000 C   0  0  0  0  0  0  0  0  0  0  0  0
   22.0473    6.1293    0.0000 C   0  0  0  0  0  0  0  0  0  0  0  0
    9.9013    4.8918    0.0000 O   0  0  0  0  0  0  0  0  0  0  0  0
    7.4559    5.0024    0.0000 C   0  0  0  0  0  0  0  0  0  0  0  0
  1  2  1  0  0  0  0
  2  3  1  0  0  0  0
  3  4  1  0  0  0  0
  4  5  1  0  0  0  0
  5  6  1  0  0  0  0
  6  7  1  0  0  0  0
  7  8  1  0  0  0  0
  8  9  1  0  0  0  0
  9 10  1  0  0  0  0
 10 11  1  0  0  0  0
 11 12  1  0  0  0  0
 12 13  1  0  0  0  0
 13 14  1  0  0  0  0
 14 15  1  0  0  0  0
 15 16  1  0  0  0  0
 16 17  1  0  0  0  0
 17 18  1  0  0  0  0
 18 19  1  0  0  0  0
 19 20  1  0  0  0  0
 20 21  1  0  0  0  0
 21 22  1  0  0  0  0
 22 23  1  0  0  0  0
  6 24  2  0  0  0  0
  2 25  1  0  0  0  0
 25 26  1  0  0  0  0
 26 27  1  0  0  0  0
 27 28  1  0  0  0  0
 28 29  1  0  0  0  0
 29 30  1  0  0  0  0
 30 31  1  0  0  0  0
 31 32  1  0  0  0  0
 32 33  1  0  0  0  0
 33 34  1  0  0  0  0
 34 35  1  0  0  0  0
 35 36  1  0  0  0  0
 36 37  1  0  0  0  0
 37 38  1  0  0  0  0
 38 39  1  0  0  0  0
 39 40  1  0  0  0  0
 40 41  1  0  0  0  0
 41 42  1  0  0  0  0
 42 43  1  0  0  0  0
 43 44  1  0  0  0  0
 44 45  1  0  0  0  0
 28 46  2  0  0  0  0
  2 47  1  0  0  0  0
M  CHG  1   2   1
M  END
> <RowID>
607

> <Original_SMILES>
[Cl-].C[N+](C)(CCOC(=O)CCCCCCCCCCCCCCCCC)CCOC(=O)CCCCCCCCCCCCCCCCC

> <Canonical_QSARr>
C[N+](C)(CCOC(=O)CCCCCCCCCCCCCCCCC)CCOC(=O)CCCCCCCCCCCCCCCCC

> <InChI_Code_QSARr>
InChI=1S/C42H84NO4/c1-5-7-9-11-13-15-17-19-21-23-25-27-29-31-33-35-41(44)46-39-37-43(3,4)38-40-47-42(45)36-34-32-30-28-26-24-22-20-18-16-14-12-10-8-6-2/h5-40H2,1-4H3/q+1

> <InChI Key_QSARr>
UUBKGJHHVMRJDS-UHFFFAOYSA-N

> <Salt_Solvent>
[Cl-]

> <Salt_Solvent_ID>
170

> <Number of connected components>
2

$$$$
Molecule_608
  Mrv2316 01072400032D          

 31 32  0  0  0  0            999 V2000
    0.6209  -14.7034    0.0000 N   0  0  0  0  0  0  0  0  0  0  0  0
    1.4310  -14.5475    0.0000 C   0  0  0  0  0  0  0  0  0  0  0  0
    2.2412  -14.3916    0.0000 C   0  0  0  0  0  0  0  0  0  0  0  0
    2.5112  -13.6121    0.0000 C   0  0  0  0  0  0  0  0  0  0  0  0
    3.3213  -13.4561    0.0000 N   0  0  0  0  0  0  0  0  0  0  0  0
    3.8614  -14.0798    0.0000 C   0  0  0  0  0  0  0  0  0  0  0  0
    4.6716  -13.9239    0.0000 C   0  0  0  0  0  0  0  0  0  0  0  0
    5.2117  -14.5475    0.0000 C   0  0  0  0  0  0  0  0  0  0  0  0
    5.7517  -15.1712    0.0000 N   0  0  0  0  0  0  0  0  0  0  0  0
    3.5914  -12.6766    0.0000 C   0  0  0  0  0  0  0  0  0  0  0  0
    4.4015  -12.5207    0.0000 C   0  0  0  0  0  0  0  0  0  0  0  0
    4.6716  -11.7411    0.0000 C   0  0  0  0  0  0  0  0  0  0  0  0
    4.1315  -11.1175    0.0000 C   0  0  0  0  0  0  0  0  0  0  0  0
    4.4015  -10.3379    0.0000 N   0  0  0  0  0  0  0  0  0  0  0  0
    5.2117  -10.1820    0.0000 N   0  0  0  0  0  0  0  0  0  0  0  0
    5.4817   -9.4025    0.0000 C   0  0  0  0  0  0  0  0  0  0  0  0
    6.2918   -9.2466    0.0000 C   0  0  0  0  0  0  0  0  0  0  0  0
    6.8319   -9.8702    0.0000 Br  0  0  0  0  0  0  0  0  0  0  0  0
    6.5619   -8.4670    0.0000 C   0  0  0  0  0  0  0  0  0  0  0  0
    6.0218   -7.8434    0.0000 C   0  0  0  0  0  0  0  0  0  0  0  0
    6.2918   -7.0638    0.0000 N   0  3  0  0  0  0  0  0  0  0  0  0
    5.7517   -6.4402    0.0000 O   0  5  0  0  0  0  0  0  0  0  0  0
    7.1020   -6.9079    0.0000 O   0  0  0  0  0  0  0  0  0  0  0  0
    5.2117   -7.9993    0.0000 C   0  0  0  0  0  0  0  0  0  0  0  0
    4.9416   -8.7788    0.0000 C   0  0  0  0  0  0  0  0  0  0  0  0
    4.1315   -8.9347    0.0000 C   0  0  0  0  0  0  0  0  0  0  0  0
    3.3213   -9.0907    0.0000 F   0  0  0  0  0  0  0  0  0  0  0  0
    4.2874   -9.7449    0.0000 F   0  0  0  0  0  0  0  0  0  0  0  0
    3.9756   -8.1246    0.0000 F   0  0  0  0  0  0  0  0  0  0  0  0
    3.3213  -11.2734    0.0000 C   0  0  0  0  0  0  0  0  0  0  0  0
    3.0513  -12.0530    0.0000 C   0  0  0  0  0  0  0  0  0  0  0  0
  1  2  3  0  0  0  0
  2  3  1  0  0  0  0
  3  4  1  0  0  0  0
  4  5  1  0  0  0  0
  5  6  1  0  0  0  0
  6  7  1  0  0  0  0
  7  8  1  0  0  0  0
  8  9  3  0  0  0  0
  5 10  1  0  0  0  0
 11 10  1  0  0  0  0
 12 11  2  0  0  0  0
 13 12  1  0  0  0  0
 14 13  1  4  0  0  0
 14 15  2  0  0  0  0
 15 16  1  0  0  0  0
 17 16  2  0  0  0  0
 17 18  1  0  0  0  0
 19 17  1  0  0  0  0
 20 19  2  0  0  0  0
 20 21  1  0  0  0  0
 21 22  1  0  0  0  0
 21 23  2  0  0  0  0
 24 20  1  0  0  0  0
 25 24  2  0  0  0  0
 16 25  1  0  0  0  0
 25 26  1  0  0  0  0
 26 27  1  0  0  0  0
 26 28  1  0  0  0  0
 26 29  1  0  0  0  0
 30 13  2  0  0  0  0
 31 30  1  0  0  0  0
 10 31  2  0  0  0  0
M  CHG  2  21   1  22  -1
M  END
> <RowID>
608

> <Original_SMILES>
N#CCCN(CCC#N)C1C=CC(=CC=1)N=NC1=C(Br)C=C(C=C1C(F)(F)F)[N+]([O-])=O

> <Canonical_QSARr>
N#CCCN(CCC#N)C1C=CC(=CC=1)N=NC1=C(Br)C=C(C=C1C(F)(F)F)[N+]([O-])=O

> <InChI_Code_QSARr>
InChI=1S/C19H14BrF3N6O2/c20-17-12-15(29(30)31)11-16(19(21,22)23)18(17)27-26-13-3-5-14(6-4-13)28(9-1-7-24)10-2-8-25/h3-6,11-12H,1-2,9-10H2

> <InChI Key_QSARr>
SNZIXXSVRWHJJU-UHFFFAOYSA-N

> <Salt_Solvent>


> <Salt_Solvent_ID>
0

> <Number of connected components>
1

$$$$
Molecule_609
  Mrv2316 01072400032D          

 23 24  0  0  0  0            999 V2000
    6.1064    0.8952    0.0000 C   0  0  0  0  0  0  0  0  0  0  0  0
    6.3885    0.1200    0.0000 C   0  0  0  0  0  0  0  0  0  0  0  0
    5.8582   -0.5120    0.0000 O   0  0  0  0  0  0  0  0  0  0  0  0
    6.1404   -1.2872    0.0000 C   0  0  0  0  0  0  0  0  0  0  0  0
    6.9529   -1.4305    0.0000 O   0  0  0  0  0  0  0  0  0  0  0  0
    5.6101   -1.9192    0.0000 C   0  0  0  0  0  0  0  0  0  0  0  0
    4.8956   -2.3317    0.0000 C   0  0  0  0  0  0  0  0  0  0  0  0
    4.8956   -3.1567    0.0000 C   0  0  0  0  0  0  0  0  0  0  0  0
    5.6101   -3.5692    0.0000 C   0  0  0  0  0  0  0  0  0  0  0  0
    6.3246   -3.1567    0.0000 C   0  0  0  0  0  0  0  0  0  0  0  0
    6.3246   -2.3317    0.0000 C   0  0  0  0  0  0  0  0  0  0  0  0
    5.0798   -1.2872    0.0000 O   0  0  0  0  0  0  0  0  0  0  0  0
    4.2673   -1.4305    0.0000 C   0  0  0  0  0  0  0  0  0  0  0  0
    3.9852   -2.2058    0.0000 O   0  0  0  0  0  0  0  0  0  0  0  0
    3.7370   -0.7985    0.0000 C   0  0  0  0  0  0  0  0  0  0  0  0
    2.9246   -0.9418    0.0000 C   0  0  0  0  0  0  0  0  0  0  0  0
    2.3943   -0.3098    0.0000 C   0  0  0  0  0  0  0  0  0  0  0  0
    1.5818   -0.4531    0.0000 C   0  0  0  0  0  0  0  0  0  0  0  0
    1.2996   -1.2283    0.0000 C   0  0  0  0  0  0  0  0  0  0  0  0
    0.4872   -1.3716    0.0000 Cl  0  0  0  0  0  0  0  0  0  0  0  0
    1.8299   -1.8603    0.0000 C   0  0  0  0  0  0  0  0  0  0  0  0
    2.6424   -1.7170    0.0000 C   0  0  0  0  0  0  0  0  0  0  0  0
    3.1727   -2.3490    0.0000 Cl  0  0  0  0  0  0  0  0  0  0  0  0
  1  2  1  0  0  0  0
  2  3  1  0  0  0  0
  3  4  1  0  0  0  0
  4  5  2  0  0  0  0
  4  6  1  0  0  0  0
  7  6  1  0  0  0  0
  8  7  1  0  0  0  0
  9  8  1  0  0  0  0
 10  9  1  0  0  0  0
 11 10  1  0  0  0  0
  6 11  1  0  0  0  0
  6 12  1  0  0  0  0
 12 13  1  0  0  0  0
 13 14  2  0  0  0  0
 13 15  1  0  0  0  0
 15 16  1  0  0  0  0
 17 16  1  0  0  0  0
 18 17  2  0  0  0  0
 19 18  1  0  0  0  0
 19 20  1  0  0  0  0
 21 19  2  0  0  0  0
 22 21  1  0  0  0  0
 16 22  2  0  0  0  0
 22 23  1  0  0  0  0
M  END
> <RowID>
609

> <Original_SMILES>
CCOC(=O)C1(CCCCC1)OC(=O)CC1C=CC(Cl)=CC=1Cl

> <Canonical_QSARr>
CCOC(=O)C1(CCCCC1)OC(=O)CC1C=CC(Cl)=CC=1Cl

> <InChI_Code_QSARr>
InChI=1S/C17H20Cl2O4/c1-2-22-16(21)17(8-4-3-5-9-17)23-15(20)10-12-6-7-13(18)11-14(12)19/h6-7,11H,2-5,8-10H2,1H3

> <InChI Key_QSARr>
RDKYUGAYISTHTP-UHFFFAOYSA-N

> <Salt_Solvent>


> <Salt_Solvent_ID>
0

> <Number of connected components>
1

$$$$
Molecule_611
  Mrv2316 01072400032D          

 15 16  0  0  0  0            999 V2000
    4.9279    1.6604    0.0000 C   0  0  0  0  0  0  0  0  0  0  0  0
    4.2135    2.0729    0.0000 C   0  0  0  0  0  0  0  0  0  0  0  0
    3.4990    1.6604    0.0000 C   0  0  0  0  0  0  0  0  0  0  0  0
    3.4990    0.8354    0.0000 O   0  0  0  0  0  0  0  0  0  0  0  0
    2.7845    2.0729    0.0000 N   0  0  0  0  0  0  0  0  0  0  0  0
    2.0701    1.6604    0.0000 C   0  0  0  0  0  0  0  0  0  0  0  0
    1.3556    2.0729    0.0000 C   0  0  0  0  0  0  0  0  0  0  0  0
    0.6411    1.6604    0.0000 C   0  0  0  0  0  0  0  0  0  0  0  0
   -0.1435    1.9153    0.0000 S   0  0  0  0  0  0  0  0  0  0  0  0
   -0.6284    1.2479    0.0000 C   0  0  0  0  0  0  0  0  0  0  0  0
   -1.4534    1.2479    0.0000 N   0  0  0  0  0  0  0  0  0  0  0  0
   -0.1435    0.5805    0.0000 N   0  0  0  0  0  0  0  0  0  0  0  0
    0.6411    0.8354    0.0000 C   0  0  0  0  0  0  0  0  0  0  0  0
    1.3556    0.4229    0.0000 C   0  0  0  0  0  0  0  0  0  0  0  0
    2.0701    0.8354    0.0000 C   0  0  0  0  0  0  0  0  0  0  0  0
  1  2  1  0  0  0  0
  2  3  1  0  0  0  0
  3  4  2  0  0  0  0
  3  5  1  0  0  0  0
  5  6  1  0  0  0  0
  7  6  1  0  0  0  0
  8  7  1  0  0  0  0
  8  9  1  0  0  0  0
  9 10  1  0  0  0  0
 10 11  1  0  0  0  0
 10 12  2  0  0  0  0
 12 13  1  0  0  0  0
 13  8  2  0  0  0  0
 14 13  1  0  0  0  0
 15 14  1  0  0  0  0
  6 15  1  0  0  0  0
M  END
> <RowID>
611

> <Original_SMILES>
CCC(=O)NC1CC2SC(N)=NC=2CC1

> <Canonical_QSARr>
CCC(=O)NC1CC2SC(N)=NC=2CC1

> <InChI_Code_QSARr>
InChI=1S/C10H15N3OS/c1-2-9(14)12-6-3-4-7-8(5-6)15-10(11)13-7/h6H,2-5H2,1H3,(H2,11,13)(H,12,14)

> <InChI Key_QSARr>
VVPFOYOFGUBZRY-UHFFFAOYSA-N

> <Salt_Solvent>


> <Salt_Solvent_ID>
0

> <Number of connected components>
1

$$$$
Molecule_612
  Mrv2316 01072400032D          

 33 32  0  0  0  0            999 V2000
   -0.3829   -3.9039    0.0000 C   0  0  0  0  0  0  0  0  0  0  0  0
    0.3316   -3.4914    0.0000 C   0  0  0  0  0  0  0  0  0  0  0  0
    0.3316   -2.6664    0.0000 C   0  0  0  0  0  0  0  0  0  0  0  0
    1.1566   -2.6664    0.0000 C   0  0  0  0  0  0  0  0  0  0  0  0
    1.5691   -3.3809    0.0000 O   0  0  0  0  0  0  0  0  0  0  0  0
    2.3941   -3.3809    0.0000 C   0  0  0  0  0  0  0  0  0  0  0  0
    2.8066   -2.6664    0.0000 O   0  0  0  0  0  0  0  0  0  0  0  0
    2.8066   -4.0954    0.0000 C   0  0  0  0  0  0  0  0  0  0  0  0
    3.6316   -4.0954    0.0000 C   0  0  0  0  0  0  0  0  0  0  0  0
    4.0441   -4.8098    0.0000 C   0  0  0  0  0  0  0  0  0  0  0  0
    4.8691   -4.8098    0.0000 C   0  0  0  0  0  0  0  0  0  0  0  0
    5.2816   -5.5243    0.0000 C   0  0  0  0  0  0  0  0  0  0  0  0
    6.1066   -5.5243    0.0000 C   0  0  0  0  0  0  0  0  0  0  0  0
   -0.4934   -2.6664    0.0000 C   0  0  0  0  0  0  0  0  0  0  0  0
   -0.9059   -1.9520    0.0000 O   0  0  0  0  0  0  0  0  0  0  0  0
   -1.7309   -1.9520    0.0000 C   0  0  0  0  0  0  0  0  0  0  0  0
   -2.1434   -2.6664    0.0000 O   0  0  0  0  0  0  0  0  0  0  0  0
   -2.1434   -1.2375    0.0000 C   0  0  0  0  0  0  0  0  0  0  0  0
   -2.9684   -1.2375    0.0000 C   0  0  0  0  0  0  0  0  0  0  0  0
   -3.3809   -0.5230    0.0000 C   0  0  0  0  0  0  0  0  0  0  0  0
   -4.2059   -0.5230    0.0000 C   0  0  0  0  0  0  0  0  0  0  0  0
   -4.6184    0.1915    0.0000 C   0  0  0  0  0  0  0  0  0  0  0  0
   -5.4434    0.1915    0.0000 C   0  0  0  0  0  0  0  0  0  0  0  0
    0.3316   -1.8414    0.0000 C   0  0  0  0  0  0  0  0  0  0  0  0
    1.0461   -1.4289    0.0000 O   0  0  0  0  0  0  0  0  0  0  0  0
    1.7605   -1.8414    0.0000 C   0  0  0  0  0  0  0  0  0  0  0  0
    1.7605   -2.6664    0.0000 O   0  0  0  0  0  0  0  0  0  0  0  0
    2.4750   -1.4289    0.0000 C   0  0  0  0  0  0  0  0  0  0  0  0
    3.1895   -1.8414    0.0000 C   0  0  0  0  0  0  0  0  0  0  0  0
    3.9040   -1.4289    0.0000 C   0  0  0  0  0  0  0  0  0  0  0  0
    4.6184   -1.8414    0.0000 C   0  0  0  0  0  0  0  0  0  0  0  0
    5.3329   -1.4289    0.0000 C   0  0  0  0  0  0  0  0  0  0  0  0
    6.0474   -1.8414    0.0000 C   0  0  0  0  0  0  0  0  0  0  0  0
  1  2  1  0  0  0  0
  2  3  1  0  0  0  0
  3  4  1  0  0  0  0
  4  5  1  0  0  0  0
  5  6  1  0  0  0  0
  6  7  2  0  0  0  0
  6  8  1  0  0  0  0
  8  9  1  0  0  0  0
  9 10  1  0  0  0  0
 10 11  1  0  0  0  0
 11 12  1  0  0  0  0
 12 13  1  0  0  0  0
  3 14  1  0  0  0  0
 14 15  1  0  0  0  0
 15 16  1  0  0  0  0
 16 17  2  0  0  0  0
 16 18  1  0  0  0  0
 18 19  1  0  0  0  0
 19 20  1  0  0  0  0
 20 21  1  0  0  0  0
 21 22  1  0  0  0  0
 22 23  1  0  0  0  0
  3 24  1  0  0  0  0
 24 25  1  0  0  0  0
 25 26  1  0  0  0  0
 26 27  2  0  0  0  0
 26 28  1  0  0  0  0
 28 29  1  0  0  0  0
 29 30  1  0  0  0  0
 30 31  1  0  0  0  0
 31 32  1  0  0  0  0
 32 33  1  0  0  0  0
M  END
> <RowID>
612

> <Original_SMILES>
CCC(COC(=O)CCCCCC)(COC(=O)CCCCCC)COC(=O)CCCCCC

> <Canonical_QSARr>
CCC(COC(=O)CCCCCC)(COC(=O)CCCCCC)COC(=O)CCCCCC

> <InChI_Code_QSARr>
InChI=1S/C27H50O6/c1-5-9-12-15-18-24(28)31-21-27(8-4,22-32-25(29)19-16-13-10-6-2)23-33-26(30)20-17-14-11-7-3/h5-23H2,1-4H3

> <InChI Key_QSARr>
UQJDVLPHTXQTRP-UHFFFAOYSA-N

> <Salt_Solvent>


> <Salt_Solvent_ID>
0

> <Number of connected components>
1

$$$$
Molecule_613
  Mrv2316 01072400032D          

 18 17  0  0  0  0            999 V2000
    0.1401    2.5559    0.0000 C   0  0  0  0  0  0  0  0  0  0  0  0
    0.8546    2.9684    0.0000 C   0  0  0  0  0  0  0  0  0  0  0  0
    1.5691    2.5559    0.0000 C   0  0  0  0  0  0  0  0  0  0  0  0
    1.1566    1.8414    0.0000 C   0  0  0  0  0  0  0  0  0  0  0  0
    1.9816    3.2704    0.0000 C   0  0  0  0  0  0  0  0  0  0  0  0
    2.2835    2.1434    0.0000 O   0  0  0  0  0  0  0  0  0  0  0  0
    2.9980    2.5559    0.0000 O   0  0  0  0  0  0  0  0  0  0  0  0
    3.7125    2.1434    0.0000 C   0  0  0  0  0  0  0  0  0  0  0  0
    3.7125    1.3184    0.0000 O   0  0  0  0  0  0  0  0  0  0  0  0
    4.4270    2.5559    0.0000 O   0  0  0  0  0  0  0  0  0  0  0  0
    5.1414    2.1434    0.0000 C   0  0  0  0  0  0  0  0  0  0  0  0
    5.8559    2.5559    0.0000 C   0  0  0  0  0  0  0  0  0  0  0  0
    6.5704    2.1434    0.0000 C   0  0  0  0  0  0  0  0  0  0  0  0
    7.2848    2.5559    0.0000 C   0  0  0  0  0  0  0  0  0  0  0  0
    7.9993    2.1434    0.0000 C   0  0  0  0  0  0  0  0  0  0  0  0
    8.7138    2.5559    0.0000 C   0  0  0  0  0  0  0  0  0  0  0  0
    5.8559    3.3809    0.0000 C   0  0  0  0  0  0  0  0  0  0  0  0
    6.5704    3.7934    0.0000 C   0  0  0  0  0  0  0  0  0  0  0  0
  1  2  1  0  0  0  0
  2  3  1  0  0  0  0
  3  4  1  0  0  0  0
  3  5  1  0  0  0  0
  3  6  1  0  0  0  0
  6  7  1  0  0  0  0
  7  8  1  0  0  0  0
  8  9  2  0  0  0  0
  8 10  1  0  0  0  0
 10 11  1  0  0  0  0
 11 12  1  0  0  0  0
 12 13  1  0  0  0  0
 13 14  1  0  0  0  0
 14 15  1  0  0  0  0
 15 16  1  0  0  0  0
 12 17  1  0  0  0  0
 17 18  1  0  0  0  0
M  END
> <RowID>
613

> <Original_SMILES>
CCC(C)(C)OOC(=O)OCC(CCCC)CC

> <Canonical_QSARr>
CCC(C)(C)OOC(=O)OCC(CCCC)CC

> <InChI_Code_QSARr>
InChI=1S/C14H28O4/c1-6-9-10-12(7-2)11-16-13(15)17-18-14(4,5)8-3/h12H,6-11H2,1-5H3

> <InChI Key_QSARr>
HTCRKQHJUYBQTK-UHFFFAOYSA-N

> <Salt_Solvent>


> <Salt_Solvent_ID>
0

> <Number of connected components>
1

$$$$
Molecule_615
  Mrv2316 01072400032D          

 13 12  0  0  0  0            999 V2000
   -0.1914   -2.3645    0.0000 O   0  0  0  0  0  0  0  0  0  0  0  0
    0.5230   -1.9520    0.0000 C   0  0  0  0  0  0  0  0  0  0  0  0
    1.2375   -2.3645    0.0000 O   0  0  0  0  0  0  0  0  0  0  0  0
    0.5230   -1.1270    0.0000 C   0  0  0  0  0  0  0  0  0  0  0  0
    1.2375   -0.7145    0.0000 C   0  0  0  0  0  0  0  0  0  0  0  0
    1.9520   -0.3020    0.0000 C   0  0  0  0  0  0  0  0  0  0  0  0
    2.6664   -0.7145    0.0000 C   0  0  0  0  0  0  0  0  0  0  0  0
    3.3809   -0.3020    0.0000 O   0  0  0  0  0  0  0  0  0  0  0  0
    2.6664   -1.5395    0.0000 O   0  0  0  0  0  0  0  0  0  0  0  0
    1.6500   -1.4290    0.0000 O   0  0  0  0  0  0  0  0  0  0  0  0
    0.8250   -0.0000    0.0000 C   0  0  0  0  0  0  0  0  0  0  0  0
    1.2375    0.7145    0.0000 O   0  0  0  0  0  0  0  0  0  0  0  0
   -0.0000   -0.0000    0.0000 O   0  0  0  0  0  0  0  0  0  0  0  0
  1  2  1  0  0  0  0
  2  3  2  0  0  0  0
  2  4  1  0  0  0  0
  4  5  1  0  0  0  0
  5  6  1  0  0  0  0
  6  7  1  0  0  0  0
  7  8  1  0  0  0  0
  7  9  2  0  0  0  0
  5 10  1  0  0  0  0
  5 11  1  0  0  0  0
 11 12  1  0  0  0  0
 11 13  2  0  0  0  0
M  END
> <RowID>
615

> <Original_SMILES>
[Na+].[Na+].[Na+].[O-]C(=O)C(O)(CC([O-])=O)CC([O-])=O

> <Canonical_QSARr>
OC(=O)C(O)(CC(O)=O)CC(O)=O

> <InChI_Code_QSARr>
InChI=1S/C6H8O7/c7-3(8)1-6(13,5(11)12)2-4(9)10/h13H,1-2H2,(H,7,8)(H,9,10)(H,11,12)

> <InChI Key_QSARr>
KRKNYBCHXYNGOX-UHFFFAOYSA-N

> <Salt_Solvent>
[Na+]

> <Salt_Solvent_ID>
110

> <Number of connected components>
4

$$$$
Molecule_617
  Mrv2316 01072400032D          

 11 11  0  0  0  0            999 V2000
    0.1299   -1.2750    0.0000 C   0  0  0  0  0  0  0  0  0  0  0  0
    0.8444   -0.8625    0.0000 C   0  0  0  0  0  0  0  0  0  0  0  0
    1.5588   -1.2750    0.0000 O   0  0  0  0  0  0  0  0  0  0  0  0
    0.8444   -0.0375    0.0000 C   0  0  0  0  0  0  0  0  0  0  0  0
    1.5588    0.3750    0.0000 C   0  0  0  0  0  0  0  0  0  0  0  0
    1.5588    1.2000    0.0000 C   0  0  0  0  0  0  0  0  0  0  0  0
    0.8444    1.6125    0.0000 C   0  0  0  0  0  0  0  0  0  0  0  0
    0.8444    2.4375    0.0000 O   0  0  0  0  0  0  0  0  0  0  0  0
    0.1299    2.8500    0.0000 C   0  0  0  0  0  0  0  0  0  0  0  0
    0.1299    1.2000    0.0000 C   0  0  0  0  0  0  0  0  0  0  0  0
    0.1299    0.3750    0.0000 C   0  0  0  0  0  0  0  0  0  0  0  0
  1  2  1  0  0  0  0
  2  3  2  0  0  0  0
  2  4  1  0  0  0  0
  5  4  2  0  0  0  0
  6  5  1  0  0  0  0
  7  6  2  0  0  0  0
  7  8  1  0  0  0  0
  8  9  1  0  0  0  0
 10  7  1  0  0  0  0
 11 10  2  0  0  0  0
  4 11  1  0  0  0  0
M  END
> <RowID>
617

> <Original_SMILES>
CC(=O)C1=CC=C(C=C1)OC

> <Canonical_QSARr>
CC(=O)C1=CC=C(C=C1)OC

> <InChI_Code_QSARr>
InChI=1S/C9H10O2/c1-7(10)8-3-5-9(11-2)6-4-8/h3-6H,1-2H3

> <InChI Key_QSARr>
NTPLXRHDUXRPNE-UHFFFAOYSA-N

> <Salt_Solvent>


> <Salt_Solvent_ID>
0

> <Number of connected components>
1

$$$$
Molecule_618
  Mrv2316 01072400032D          

  7  6  0  0  0  0            999 V2000
    1.7605    1.8414    0.0000 C   0  0  0  0  0  0  0  0  0  0  0  0
    2.4750    1.4289    0.0000 C   0  0  0  0  0  0  0  0  0  0  0  0
    3.1895    1.8414    0.0000 C   0  0  0  0  0  0  0  0  0  0  0  0
    3.9039    1.4289    0.0000 C   0  0  0  0  0  0  0  0  0  0  0  0
    4.6184    1.8414    0.0000 C   0  0  0  0  0  0  0  0  0  0  0  0
    5.3329    1.4289    0.0000 C   0  0  0  0  0  0  0  0  0  0  0  0
    6.0474    1.8414    0.0000 Br  0  0  0  0  0  0  0  0  0  0  0  0
  1  2  1  0  0  0  0
  2  3  1  0  0  0  0
  3  4  1  0  0  0  0
  4  5  1  0  0  0  0
  5  6  1  0  0  0  0
  6  7  1  0  0  0  0
M  END
> <RowID>
618

> <Original_SMILES>
CCCCCCBr

> <Canonical_QSARr>
CCCCCCBr

> <InChI_Code_QSARr>
InChI=1S/C6H13Br/c1-2-3-4-5-6-7/h2-6H2,1H3

> <InChI Key_QSARr>
MNDIARAMWBIKFW-UHFFFAOYSA-N

> <Salt_Solvent>


> <Salt_Solvent_ID>
0

> <Number of connected components>
1

$$$$
Molecule_619
  Mrv2316 01072400032D          

 33 34  0  0  0  0            999 V2000
   -5.7158    2.4750    0.0000 C   0  0  0  0  0  0  0  0  0  0  0  0
   -5.7158    1.6500    0.0000 C   0  0  0  0  0  0  0  0  0  0  0  0
   -5.0013    1.2375    0.0000 O   0  0  0  0  0  0  0  0  0  0  0  0
   -5.0013    0.4125    0.0000 C   0  0  0  0  0  0  0  0  0  0  0  0
   -5.7158   -0.0000    0.0000 C   0  0  0  0  0  0  0  0  0  0  0  0
   -5.7158   -0.8250    0.0000 C   0  0  0  0  0  0  0  0  0  0  0  0
   -5.0013   -1.2375    0.0000 C   0  0  0  0  0  0  0  0  0  0  0  0
   -4.2869   -0.8250    0.0000 C   0  0  0  0  0  0  0  0  0  0  0  0
   -4.2869   -0.0000    0.0000 C   0  0  0  0  0  0  0  0  0  0  0  0
   -3.5724    0.4125    0.0000 N   0  0  0  0  0  0  0  0  0  0  0  0
   -2.8579   -0.0000    0.0000 C   0  0  0  0  0  0  0  0  0  0  0  0
   -2.8579   -0.8250    0.0000 O   0  0  0  0  0  0  0  0  0  0  0  0
   -2.1434    0.4125    0.0000 C   0  0  0  0  0  0  0  0  0  0  0  0
   -2.1434    1.2375    0.0000 O   0  0  0  0  0  0  0  0  0  0  0  0
   -1.4290    0.0000    0.0000 N   0  0  0  0  0  0  0  0  0  0  0  0
   -0.7145    0.4125    0.0000 C   0  0  0  0  0  0  0  0  0  0  0  0
   -0.0000   -0.0000    0.0000 C   0  0  0  0  0  0  0  0  0  0  0  0
    0.7144    0.4125    0.0000 C   0  0  0  0  0  0  0  0  0  0  0  0
    0.7144    1.2375    0.0000 C   0  0  0  0  0  0  0  0  0  0  0  0
    1.4289    1.6500    0.0000 C   0  0  0  0  0  0  0  0  0  0  0  0
    2.1434    1.2375    0.0000 C   0  0  0  0  0  0  0  0  0  0  0  0
    2.8579    1.6500    0.0000 C   0  0  0  0  0  0  0  0  0  0  0  0
    3.5723    1.2375    0.0000 C   0  0  0  0  0  0  0  0  0  0  0  0
    4.2868    1.6500    0.0000 C   0  0  0  0  0  0  0  0  0  0  0  0
    5.0013    1.2375    0.0000 C   0  0  0  0  0  0  0  0  0  0  0  0
    5.7157    1.6500    0.0000 C   0  0  0  0  0  0  0  0  0  0  0  0
    6.4302    1.2375    0.0000 C   0  0  0  0  0  0  0  0  0  0  0  0
    7.1447    1.6500    0.0000 C   0  0  0  0  0  0  0  0  0  0  0  0
    7.8591    1.2375    0.0000 C   0  0  0  0  0  0  0  0  0  0  0  0
    8.5736    1.6500    0.0000 C   0  0  0  0  0  0  0  0  0  0  0  0
    7.8591    0.4125    0.0000 C   0  0  0  0  0  0  0  0  0  0  0  0
   -0.0000    1.6500    0.0000 C   0  0  0  0  0  0  0  0  0  0  0  0
   -0.7145    1.2375    0.0000 C   0  0  0  0  0  0  0  0  0  0  0  0
  1  2  1  0  0  0  0
  2  3  1  0  0  0  0
  3  4  1  0  0  0  0
  5  4  2  0  0  0  0
  6  5  1  0  0  0  0
  7  6  2  0  0  0  0
  8  7  1  0  0  0  0
  9  8  2  0  0  0  0
  4  9  1  0  0  0  0
  9 10  1  0  0  0  0
 10 11  1  0  0  0  0
 11 12  2  0  0  0  0
 11 13  1  0  0  0  0
 13 14  2  0  0  0  0
 13 15  1  0  0  0  0
 15 16  1  0  0  0  0
 17 16  2  0  0  0  0
 18 17  1  0  0  0  0
 19 18  2  0  0  0  0
 19 20  1  0  0  0  0
 20 21  1  0  0  0  0
 21 22  1  0  0  0  0
 22 23  1  0  0  0  0
 23 24  1  0  0  0  0
 24 25  1  0  0  0  0
 25 26  1  0  0  0  0
 26 27  1  0  0  0  0
 27 28  1  0  0  0  0
 28 29  1  0  0  0  0
 29 30  1  0  0  0  0
 29 31  1  0  0  0  0
 32 19  1  0  0  0  0
 33 32  2  0  0  0  0
 16 33  1  0  0  0  0
M  END
> <RowID>
619

> <Original_SMILES>
CCOC1=CC=CC=C1NC(=O)C(=O)NC1=CC=C(CCCCCCCCCC(C)C)C=C1

> <Canonical_QSARr>
CCOC1=CC=CC=C1NC(=O)C(=O)NC1=CC=C(CCCCCCCCCC(C)C)C=C1

> <InChI_Code_QSARr>
InChI=1S/C28H40N2O3/c1-4-33-26-17-13-12-16-25(26)30-28(32)27(31)29-24-20-18-23(19-21-24)15-11-9-7-5-6-8-10-14-22(2)3/h12-13,16-22H,4-11,14-15H2,1-3H3,(H,29,31)(H,30,32)

> <InChI Key_QSARr>
PIPJHDJQUXGVNR-UHFFFAOYSA-N

> <Salt_Solvent>


> <Salt_Solvent_ID>
0

> <Number of connected components>
1

$$$$
Molecule_620
  Mrv2316 01072400032D          

 20 21  0  0  0  0            999 V2000
   -0.7859    1.1550    0.0000 C   0  0  0  0  0  0  0  0  0  0  0  0
   -0.0714    0.7425    0.0000 C   0  0  0  0  0  0  0  0  0  0  0  0
   -0.0714   -0.0825    0.0000 N   0  0  0  0  0  0  0  0  0  0  0  0
    0.6430   -0.4950    0.0000 C   0  0  0  0  0  0  0  0  0  0  0  0
    0.6430   -1.3200    0.0000 O   0  0  0  0  0  0  0  0  0  0  0  0
    1.3575   -0.0825    0.0000 N   0  0  0  0  0  0  0  0  0  0  0  0
    1.3575    0.7425    0.0000 C   0  0  0  0  0  0  0  0  0  0  0  0
    2.0720    1.1550    0.0000 C   0  0  0  0  0  0  0  0  0  0  0  0
    2.0720   -0.4950    0.0000 C   0  0  0  0  0  0  0  0  0  0  0  0
    2.0720   -1.3200    0.0000 C   0  0  0  0  0  0  0  0  0  0  0  0
    2.7864   -1.7325    0.0000 C   0  0  0  0  0  0  0  0  0  0  0  0
    3.5009   -1.3200    0.0000 C   0  0  0  0  0  0  0  0  0  0  0  0
    3.5009   -0.4950    0.0000 C   0  0  0  0  0  0  0  0  0  0  0  0
    2.7864   -0.0825    0.0000 C   0  0  0  0  0  0  0  0  0  0  0  0
   -0.7859   -0.4950    0.0000 C   0  0  0  0  0  0  0  0  0  0  0  0
   -1.5004   -0.0825    0.0000 C   0  0  0  0  0  0  0  0  0  0  0  0
   -2.2149   -0.4950    0.0000 C   0  0  0  0  0  0  0  0  0  0  0  0
   -2.2149   -1.3200    0.0000 C   0  0  0  0  0  0  0  0  0  0  0  0
   -1.5004   -1.7325    0.0000 C   0  0  0  0  0  0  0  0  0  0  0  0
   -0.7859   -1.3200    0.0000 C   0  0  0  0  0  0  0  0  0  0  0  0
  1  2  1  0  0  0  0
  2  3  1  0  0  0  0
  3  4  1  0  0  0  0
  4  5  2  0  0  0  0
  4  6  1  0  0  0  0
  6  7  1  0  0  0  0
  7  8  1  0  0  0  0
  6  9  1  0  0  0  0
 10  9  1  0  0  0  0
 11 10  2  0  0  0  0
 12 11  1  0  0  0  0
 13 12  2  0  0  0  0
 14 13  1  0  0  0  0
  9 14  2  0  0  0  0
  3 15  1  0  0  0  0
 16 15  1  0  0  0  0
 17 16  2  0  0  0  0
 18 17  1  0  0  0  0
 19 18  2  0  0  0  0
 20 19  1  0  0  0  0
 15 20  2  0  0  0  0
M  END
> <RowID>
620

> <Original_SMILES>
CCN(C(=O)N(CC)C1C=CC=CC=1)C1C=CC=CC=1

> <Canonical_QSARr>
CCN(C(=O)N(CC)C1C=CC=CC=1)C1C=CC=CC=1

> <InChI_Code_QSARr>
InChI=1S/C17H20N2O/c1-3-18(15-11-7-5-8-12-15)17(20)19(4-2)16-13-9-6-10-14-16/h5-14H,3-4H2,1-2H3

> <InChI Key_QSARr>
PZIMIYVOZBTARW-UHFFFAOYSA-N

> <Salt_Solvent>


> <Salt_Solvent_ID>
0

> <Number of connected components>
1

$$$$
Molecule_621
  Mrv2316 01072400032D          

 28 29  0  0  0  0            999 V2000
    5.7158   -7.8375    0.0000 O   0  0  0  0  0  0  0  0  0  0  0  0
    5.7158   -8.6625    0.0000 C   0  0  0  0  0  0  0  0  0  0  0  0
    5.0013   -9.0750    0.0000 N   0  0  0  0  0  0  0  0  0  0  0  0
    4.2868   -8.6625    0.0000 C   0  0  0  0  0  0  0  0  0  0  0  0
    3.5724   -9.0750    0.0000 C   0  0  0  0  0  0  0  0  0  0  0  0
    2.8579   -8.6625    0.0000 C   0  0  0  0  0  0  0  0  0  0  0  0
    2.1434   -9.0750    0.0000 C   0  0  0  0  0  0  0  0  0  0  0  0
    2.1434   -9.9000    0.0000 C   0  0  0  0  0  0  0  0  0  0  0  0
    2.8579  -10.3125    0.0000 C   0  0  0  0  0  0  0  0  0  0  0  0
    3.5724   -9.9000    0.0000 C   0  0  0  0  0  0  0  0  0  0  0  0
    6.4302   -9.0750    0.0000 N   0  0  0  0  0  0  0  0  0  0  0  0
    7.1447   -8.6625    0.0000 C   0  0  0  0  0  0  0  0  0  0  0  0
    7.8592   -9.0750    0.0000 C   0  0  0  0  0  0  0  0  0  0  0  0
    8.5737   -8.6625    0.0000 C   0  0  0  0  0  0  0  0  0  0  0  0
    9.2881   -9.0750    0.0000 C   0  0  0  0  0  0  0  0  0  0  0  0
   10.0026   -8.6625    0.0000 C   0  0  0  0  0  0  0  0  0  0  0  0
   10.7171   -9.0750    0.0000 C   0  0  0  0  0  0  0  0  0  0  0  0
   11.4315   -8.6625    0.0000 N   0  0  0  0  0  0  0  0  0  0  0  0
   12.1460   -9.0750    0.0000 C   0  0  0  0  0  0  0  0  0  0  0  0
   12.1460   -9.9000    0.0000 O   0  0  0  0  0  0  0  0  0  0  0  0
   12.8605   -8.6625    0.0000 N   0  0  0  0  0  0  0  0  0  0  0  0
   13.5750   -9.0750    0.0000 C   0  0  0  0  0  0  0  0  0  0  0  0
   14.2894   -8.6625    0.0000 C   0  0  0  0  0  0  0  0  0  0  0  0
   15.0039   -9.0750    0.0000 C   0  0  0  0  0  0  0  0  0  0  0  0
   15.7184   -8.6625    0.0000 C   0  0  0  0  0  0  0  0  0  0  0  0
   15.7184   -7.8375    0.0000 C   0  0  0  0  0  0  0  0  0  0  0  0
   15.0039   -7.4250    0.0000 C   0  0  0  0  0  0  0  0  0  0  0  0
   14.2894   -7.8375    0.0000 C   0  0  0  0  0  0  0  0  0  0  0  0
  1  2  2  0  0  0  0
  2  3  1  0  0  0  0
  3  4  1  0  0  0  0
  4  5  1  0  0  0  0
  6  5  1  0  0  0  0
  7  6  2  0  0  0  0
  8  7  1  0  0  0  0
  9  8  2  0  0  0  0
 10  9  1  0  0  0  0
  5 10  2  0  0  0  0
  2 11  1  0  0  0  0
 11 12  1  0  0  0  0
 12 13  1  0  0  0  0
 13 14  1  0  0  0  0
 14 15  1  0  0  0  0
 15 16  1  0  0  0  0
 16 17  1  0  0  0  0
 17 18  1  0  0  0  0
 18 19  1  0  0  0  0
 19 20  2  0  0  0  0
 19 21  1  0  0  0  0
 21 22  1  0  0  0  0
 22 23  1  0  0  0  0
 24 23  1  0  0  0  0
 25 24  2  0  0  0  0
 26 25  1  0  0  0  0
 27 26  2  0  0  0  0
 28 27  1  0  0  0  0
 23 28  2  0  0  0  0
M  END
> <RowID>
621

> <Original_SMILES>
O=C(NCC1C=CC=CC=1)NCCCCCCNC(=O)NCC1C=CC=CC=1

> <Canonical_QSARr>
O=C(NCC1C=CC=CC=1)NCCCCCCNC(=O)NCC1C=CC=CC=1

> <InChI_Code_QSARr>
InChI=1S/C22H30N4O2/c27-21(25-17-19-11-5-3-6-12-19)23-15-9-1-2-10-16-24-22(28)26-18-20-13-7-4-8-14-20/h3-8,11-14H,1-2,9-10,15-18H2,(H2,23,25,27)(H2,24,26,28)

> <InChI Key_QSARr>
KTVATEBHFLZLCI-UHFFFAOYSA-N

> <Salt_Solvent>


> <Salt_Solvent_ID>
0

> <Number of connected components>
1

$$$$
Molecule_622
  Mrv2316 01072400032D          

 11 12  0  0  0  0            999 V2000
    0.8838    0.7541    0.0000 O   0  0  0  0  0  0  0  0  0  0  0  0
    1.1387   -0.0305    0.0000 C   0  0  0  0  0  0  0  0  0  0  0  0
    1.9233   -0.2854    0.0000 C   0  0  0  0  0  0  0  0  0  0  0  0
    2.6378    0.1271    0.0000 C   0  0  0  0  0  0  0  0  0  0  0  0
    3.3523   -0.2854    0.0000 C   0  0  0  0  0  0  0  0  0  0  0  0
    3.3523   -1.1104    0.0000 C   0  0  0  0  0  0  0  0  0  0  0  0
    2.6378   -1.5229    0.0000 C   0  0  0  0  0  0  0  0  0  0  0  0
    1.9233   -1.1104    0.0000 C   0  0  0  0  0  0  0  0  0  0  0  0
    1.1387   -1.3654    0.0000 N   0  0  0  0  0  0  0  0  0  0  0  0
    0.6538   -0.6979    0.0000 C   0  0  0  0  0  0  0  0  0  0  0  0
   -0.1712   -0.6979    0.0000 O   0  0  0  0  0  0  0  0  0  0  0  0
  1  2  2  0  0  0  0
  3  2  1  0  0  0  0
  3  4  1  0  0  0  0
  4  5  2  0  0  0  0
  5  6  1  0  0  0  0
  6  7  2  0  0  0  0
  7  8  1  0  0  0  0
  8  3  2  0  0  0  0
  9  8  1  0  0  0  0
 10  9  1  0  0  0  0
  2 10  1  0  0  0  0
 10 11  2  0  0  0  0
M  END
> <RowID>
622

> <Original_SMILES>
O=C1C2C=CC=CC=2NC1=O

> <Canonical_QSARr>
O=C1C2C=CC=CC=2NC1=O

> <InChI_Code_QSARr>
InChI=1S/C8H5NO2/c10-7-5-3-1-2-4-6(5)9-8(7)11/h1-4H,(H,9,10,11)

> <InChI Key_QSARr>
JXDYKVIHCLTXOP-UHFFFAOYSA-N

> <Salt_Solvent>


> <Salt_Solvent_ID>
0

> <Number of connected components>
1

$$$$
Molecule_623
  Mrv2316 01072400032D          

 12 11  0  0  0  0            999 V2000
    1.2375    0.7145    0.0000 C   0  0  0  0  0  0  0  0  0  0  0  0
    0.8250   -0.0000    0.0000 C   0  0  0  0  0  0  0  0  0  0  0  0
    1.2375   -0.7145    0.0000 C   0  0  0  0  0  0  0  0  0  0  0  0
    0.8250   -1.4290    0.0000 O   0  0  0  0  0  0  0  0  0  0  0  0
    1.2375   -2.1434    0.0000 C   0  0  0  0  0  0  0  0  0  0  0  0
    0.8250   -2.8579    0.0000 C   0  0  0  0  0  0  0  0  0  0  0  0
    1.2375   -3.5724    0.0000 N   0  3  0  0  0  0  0  0  0  0  0  0
    1.6500   -4.2868    0.0000 C   0  0  0  0  0  0  0  0  0  0  0  0
    0.5230   -3.9849    0.0000 C   0  0  0  0  0  0  0  0  0  0  0  0
    1.9520   -3.1599    0.0000 C   0  0  0  0  0  0  0  0  0  0  0  0
    2.0625   -0.7145    0.0000 O   0  0  0  0  0  0  0  0  0  0  0  0
   -0.0000   -0.0000    0.0000 C   0  0  0  0  0  0  0  0  0  0  0  0
  1  2  1  0  0  0  0
  2  3  1  0  0  0  0
  3  4  1  0  0  0  0
  4  5  1  0  0  0  0
  5  6  1  0  0  0  0
  6  7  1  0  0  0  0
  7  8  1  0  0  0  0
  7  9  1  0  0  0  0
  7 10  1  0  0  0  0
  3 11  2  0  0  0  0
  2 12  2  0  0  0  0
M  CHG  1   7   1
M  END
> <RowID>
623

> <Original_SMILES>
[Cl-].CC(=C)C(=O)OCC[N+](C)(C)C

> <Canonical_QSARr>
CC(=C)C(=O)OCC[N+](C)(C)C

> <InChI_Code_QSARr>
InChI=1S/C9H18NO2/c1-8(2)9(11)12-7-6-10(3,4)5/h1,6-7H2,2-5H3/q+1

> <InChI Key_QSARr>
USFMMZYROHDWPJ-UHFFFAOYSA-N

> <Salt_Solvent>
[Cl-]

> <Salt_Solvent_ID>
170

> <Number of connected components>
2

$$$$
Molecule_624
  Mrv2316 01072400032D          

 48 51  0  0  0  0            999 V2000
   12.3842    0.7219    0.0000 C   0  0  0  0  0  0  0  0  0  0  0  0
   12.3842    1.5469    0.0000 C   0  0  0  0  0  0  0  0  0  0  0  0
   13.0986    1.9594    0.0000 O   0  0  0  0  0  0  0  0  0  0  0  0
   11.6697    1.9594    0.0000 N   0  0  0  0  0  0  0  0  0  0  0  0
   11.6697    2.7844    0.0000 C   0  0  0  0  0  0  0  0  0  0  0  0
   12.3842    3.1969    0.0000 C   0  0  0  0  0  0  0  0  0  0  0  0
   12.3842    4.0219    0.0000 C   0  0  0  0  0  0  0  0  0  0  0  0
   11.6697    4.4344    0.0000 C   0  0  0  0  0  0  0  0  0  0  0  0
   11.6697    5.2594    0.0000 C   0  0  0  0  0  0  0  0  0  0  0  0
   10.9552    4.0219    0.0000 C   0  0  0  0  0  0  0  0  0  0  0  0
   10.9552    3.1969    0.0000 C   0  0  0  0  0  0  0  0  0  0  0  0
   10.2407    2.7844    0.0000 C   0  0  0  0  0  0  0  0  0  0  0  0
   13.0986    0.3094    0.0000 N   0  0  0  0  0  0  0  0  0  0  0  0
   13.0986   -0.5156    0.0000 N   0  0  0  0  0  0  0  0  0  0  0  0
   13.8131   -0.9281    0.0000 C   0  0  0  0  0  0  0  0  0  0  0  0
   13.8131   -1.7531    0.0000 C   0  0  0  0  0  0  0  0  0  0  0  0
   13.0986   -2.1656    0.0000 Cl  0  0  0  0  0  0  0  0  0  0  0  0
   14.5276   -2.1656    0.0000 C   0  0  0  0  0  0  0  0  0  0  0  0
   15.2420   -1.7531    0.0000 C   0  0  0  0  0  0  0  0  0  0  0  0
   15.9565   -2.1656    0.0000 C   0  0  0  0  0  0  0  0  0  0  0  0
   15.9565   -2.9906    0.0000 C   0  0  0  0  0  0  0  0  0  0  0  0
   16.6710   -3.4031    0.0000 C   0  0  0  0  0  0  0  0  0  0  0  0
   17.3855   -2.9906    0.0000 C   0  0  0  0  0  0  0  0  0  0  0  0
   18.0999   -3.4031    0.0000 N   0  0  0  0  0  0  0  0  0  0  0  0
   18.0999   -4.2281    0.0000 N   0  0  0  0  0  0  0  0  0  0  0  0
   18.8144   -4.6406    0.0000 C   0  0  0  0  0  0  0  0  0  0  0  0
   19.5289   -4.2281    0.0000 C   0  0  0  0  0  0  0  0  0  0  0  0
   19.5289   -3.4031    0.0000 O   0  0  0  0  0  0  0  0  0  0  0  0
   20.2433   -4.6406    0.0000 N   0  0  0  0  0  0  0  0  0  0  0  0
   20.9578   -4.2281    0.0000 C   0  0  0  0  0  0  0  0  0  0  0  0
   21.6723   -4.6406    0.0000 C   0  0  0  0  0  0  0  0  0  0  0  0
   22.3868   -4.2281    0.0000 C   0  0  0  0  0  0  0  0  0  0  0  0
   22.3868   -3.4031    0.0000 C   0  0  0  0  0  0  0  0  0  0  0  0
   23.1012   -2.9906    0.0000 C   0  0  0  0  0  0  0  0  0  0  0  0
   21.6723   -2.9906    0.0000 C   0  0  0  0  0  0  0  0  0  0  0  0
   20.9578   -3.4031    0.0000 C   0  0  0  0  0  0  0  0  0  0  0  0
   20.2433   -2.9906    0.0000 C   0  0  0  0  0  0  0  0  0  0  0  0
   18.8144   -5.4656    0.0000 C   0  0  0  0  0  0  0  0  0  0  0  0
   19.5289   -5.8781    0.0000 O   0  0  0  0  0  0  0  0  0  0  0  0
   18.0999   -5.8781    0.0000 C   0  0  0  0  0  0  0  0  0  0  0  0
   17.3855   -2.1656    0.0000 C   0  0  0  0  0  0  0  0  0  0  0  0
   18.0999   -1.7531    0.0000 Cl  0  0  0  0  0  0  0  0  0  0  0  0
   16.6710   -1.7531    0.0000 C   0  0  0  0  0  0  0  0  0  0  0  0
   15.2420   -0.9281    0.0000 C   0  0  0  0  0  0  0  0  0  0  0  0
   14.5276   -0.5156    0.0000 C   0  0  0  0  0  0  0  0  0  0  0  0
   11.6697    0.3094    0.0000 C   0  0  0  0  0  0  0  0  0  0  0  0
   11.6697   -0.5156    0.0000 C   0  0  0  0  0  0  0  0  0  0  0  0
   10.9552    0.7219    0.0000 O   0  0  0  0  0  0  0  0  0  0  0  0
  1  2  1  0  0  0  0
  2  3  2  0  0  0  0
  2  4  1  0  0  0  0
  4  5  1  0  0  0  0
  6  5  1  0  0  0  0
  7  6  2  0  0  0  0
  8  7  1  0  0  0  0
  8  9  1  0  0  0  0
 10  8  2  0  0  0  0
 11 10  1  0  0  0  0
  5 11  2  0  0  0  0
 11 12  1  0  0  0  0
 13  1  1  4  0  0  0
 13 14  2  0  0  0  0
 14 15  1  0  0  0  0
 16 15  1  0  0  0  0
 16 17  1  0  0  0  0
 18 16  2  0  0  0  0
 19 18  1  0  0  0  0
 19 20  1  0  0  0  0
 21 20  1  0  0  0  0
 22 21  2  0  0  0  0
 23 22  1  0  0  0  0
 24 23  1  4  0  0  0
 24 25  2  0  0  0  0
 25 26  1  0  0  0  0
 26 27  1  0  0  0  0
 27 28  2  0  0  0  0
 27 29  1  0  0  0  0
 29 30  1  0  0  0  0
 31 30  1  0  0  0  0
 32 31  2  0  0  0  0
 33 32  1  0  0  0  0
 33 34  1  0  0  0  0
 35 33  2  0  0  0  0
 36 35  1  0  0  0  0
 30 36  2  0  0  0  0
 36 37  1  0  0  0  0
 26 38  1  0  0  0  0
 38 39  2  0  0  0  0
 38 40  1  0  0  0  0
 41 23  2  0  0  0  0
 41 42  1  0  0  0  0
 43 41  1  0  0  0  0
 20 43  2  0  0  0  0
 44 19  2  0  0  0  0
 45 44  1  0  0  0  0
 15 45  2  0  0  0  0
  1 46  1  0  0  0  0
 46 47  1  0  0  0  0
 46 48  2  0  0  0  0
M  END
> <RowID>
624

> <Original_SMILES>
CC(=O)C(=NNC1C=CC(=CC=1Cl)C1=CC(Cl)=C(C=C1)NN=C(C(=O)NC1C=CC(C)=CC=1C)C(C)=O)C(=O)NC1C=CC(C)=CC=1C

> <Canonical_QSARr>
CC(=O)C(N=NC1=CC=C(C=C1Cl)C1=CC(Cl)=C(C=C1)N=NC(C(=O)NC1C=CC(C)=CC=1C)C(C)=O)C(=O)NC1C=CC(C)=CC=1C

> <InChI_Code_QSARr>
InChI=1S/C36H34Cl2N6O4/c1-19-7-11-29(21(3)15-19)39-35(47)33(23(5)45)43-41-31-13-9-25(17-27(31)37)26-10-14-32(28(38)18-26)42-44-34(24(6)46)36(48)40-30-12-8-20(2)16-22(30)4/h7-18,33-34H,1-6H3,(H,39,47)(H,40,48)

> <InChI Key_QSARr>
IAFBRPFISOTXSO-UHFFFAOYSA-N

> <Salt_Solvent>


> <Salt_Solvent_ID>
0

> <Number of connected components>
1

$$$$
Molecule_625
  Mrv2316 01072400032D          

 14 14  0  0  0  0            999 V2000
    2.8579   -0.8250    0.0000 C   0  0  0  0  0  0  0  0  0  0  0  0
    2.1434   -0.4125    0.0000 S   0  0  0  0  0  0  0  0  0  0  0  0
    2.5559    0.3020    0.0000 O   0  0  0  0  0  0  0  0  0  0  0  0
    1.7309   -1.1270    0.0000 O   0  0  0  0  0  0  0  0  0  0  0  0
    1.4289    0.0000    0.0000 C   0  0  0  0  0  0  0  0  0  0  0  0
    1.4289    0.8250    0.0000 C   0  0  0  0  0  0  0  0  0  0  0  0
    0.7145    1.2375    0.0000 C   0  0  0  0  0  0  0  0  0  0  0  0
    0.7145    2.0625    0.0000 C   0  0  0  0  0  0  0  0  0  0  0  0
    0.0000    2.4750    0.0000 O   0  0  0  0  0  0  0  0  0  0  0  0
    1.4289    2.4750    0.0000 O   0  0  0  0  0  0  0  0  0  0  0  0
    0.0000    0.8250    0.0000 C   0  0  0  0  0  0  0  0  0  0  0  0
   -0.7145    1.2375    0.0000 F   0  0  0  0  0  0  0  0  0  0  0  0
    0.0000    0.0000    0.0000 C   0  0  0  0  0  0  0  0  0  0  0  0
    0.7145   -0.4125    0.0000 C   0  0  0  0  0  0  0  0  0  0  0  0
  1  2  1  0  0  0  0
  2  3  2  0  0  0  0
  2  4  2  0  0  0  0
  2  5  1  0  0  0  0
  6  5  2  0  0  0  0
  7  6  1  0  0  0  0
  7  8  1  0  0  0  0
  8  9  1  0  0  0  0
  8 10  2  0  0  0  0
 11  7  2  0  0  0  0
 11 12  1  0  0  0  0
 13 11  1  0  0  0  0
 14 13  2  0  0  0  0
  5 14  1  0  0  0  0
M  END
> <RowID>
625

> <Original_SMILES>
CS(=O)(=O)C1=CC(C(O)=O)=C(F)C=C1

> <Canonical_QSARr>
CS(=O)(=O)C1=CC(C(O)=O)=C(F)C=C1

> <InChI_Code_QSARr>
InChI=1S/C8H7FO4S/c1-14(12,13)5-2-3-7(9)6(4-5)8(10)11/h2-4H,1H3,(H,10,11)

> <InChI Key_QSARr>
ACBAHAXPEQHVHO-UHFFFAOYSA-N

> <Salt_Solvent>


> <Salt_Solvent_ID>
0

> <Number of connected components>
1

$$$$
Molecule_626
  Mrv2316 01072400032D          

  8  7  0  0  0  0            999 V2000
    1.0461    1.4289    0.0000 Br  0  0  0  0  0  0  0  0  0  0  0  0
    1.7605    1.8414    0.0000 C   0  0  0  0  0  0  0  0  0  0  0  0
    2.4750    1.4289    0.0000 C   0  0  0  0  0  0  0  0  0  0  0  0
    3.1895    1.8414    0.0000 C   0  0  0  0  0  0  0  0  0  0  0  0
    3.9039    1.4289    0.0000 C   0  0  0  0  0  0  0  0  0  0  0  0
    4.6184    1.8414    0.0000 C   0  0  0  0  0  0  0  0  0  0  0  0
    5.3329    1.4289    0.0000 C   0  0  0  0  0  0  0  0  0  0  0  0
    6.0474    1.8414    0.0000 Br  0  0  0  0  0  0  0  0  0  0  0  0
  1  2  1  0  0  0  0
  2  3  1  0  0  0  0
  3  4  1  0  0  0  0
  4  5  1  0  0  0  0
  5  6  1  0  0  0  0
  6  7  1  0  0  0  0
  7  8  1  0  0  0  0
M  END
> <RowID>
626

> <Original_SMILES>
BrCCCCCCBr

> <Canonical_QSARr>
BrCCCCCCBr

> <InChI_Code_QSARr>
InChI=1S/C6H12Br2/c7-5-3-1-2-4-6-8/h1-6H2

> <InChI Key_QSARr>
SGRHVVLXEBNBDV-UHFFFAOYSA-N

> <Salt_Solvent>


> <Salt_Solvent_ID>
0

> <Number of connected components>
1

$$$$
Molecule_627
  Mrv2316 01072400032D          

 14 14  0  0  0  0            999 V2000
    0.4083   -2.7107    0.0000 C   0  0  0  0  0  0  0  0  0  0  0  0
    0.4083   -1.8857    0.0000 C   0  0  0  0  0  0  0  0  0  0  0  0
   -0.3062   -1.4732    0.0000 C   0  0  0  0  0  0  0  0  0  0  0  0
    1.1227   -1.4732    0.0000 C   0  0  0  0  0  0  0  0  0  0  0  0
    1.1227   -0.6482    0.0000 C   0  0  0  0  0  0  0  0  0  0  0  0
    1.8372   -0.2357    0.0000 C   0  0  0  0  0  0  0  0  0  0  0  0
    1.8372    0.5893    0.0000 C   0  0  0  0  0  0  0  0  0  0  0  0
    1.1227    1.0018    0.0000 C   0  0  0  0  0  0  0  0  0  0  0  0
    1.1227    1.8268    0.0000 C   0  0  0  0  0  0  0  0  0  0  0  0
    0.4083    2.2393    0.0000 C   0  0  0  0  0  0  0  0  0  0  0  0
    0.4083    3.0643    0.0000 C   0  0  0  0  0  0  0  0  0  0  0  0
   -0.3062    3.4768    0.0000 O   0  0  0  0  0  0  0  0  0  0  0  0
    0.4083    0.5893    0.0000 C   0  0  0  0  0  0  0  0  0  0  0  0
    0.4083   -0.2357    0.0000 C   0  0  0  0  0  0  0  0  0  0  0  0
  1  2  1  0  0  0  0
  2  3  1  0  0  0  0
  2  4  1  0  0  0  0
  4  5  1  0  0  0  0
  6  5  1  0  0  0  0
  7  6  1  0  0  0  0
  8  7  1  0  0  0  0
  8  9  1  0  0  0  0
  9 10  1  0  0  0  0
 10 11  1  0  0  0  0
 11 12  2  0  0  0  0
 13  8  1  0  0  0  0
 14 13  1  0  0  0  0
  5 14  1  0  0  0  0
M  END
> <RowID>
627

> <Original_SMILES>
CC(C)CC1CCC(CCC=O)CC1

> <Canonical_QSARr>
CC(C)CC1CCC(CCC=O)CC1

> <InChI_Code_QSARr>
InChI=1S/C13H24O/c1-11(2)10-13-7-5-12(6-8-13)4-3-9-14/h9,11-13H,3-8,10H2,1-2H3

> <InChI Key_QSARr>
XUTZHJNXAOHUTM-UHFFFAOYSA-N

> <Salt_Solvent>


> <Salt_Solvent_ID>
0

> <Number of connected components>
1

$$$$
Molecule_629
  Mrv2316 01072400032D          

 14 13  0  0  0  0            999 V2000
    2.2836    2.1434    0.0000 C   0  0  0  0  0  0  0  0  0  0  0  0
    2.9980    2.5559    0.0000 C   0  0  0  0  0  0  0  0  0  0  0  0
    2.9980    3.3809    0.0000 C   0  0  0  0  0  0  0  0  0  0  0  0
    3.7125    2.1434    0.0000 O   0  0  0  0  0  0  0  0  0  0  0  0
    4.4270    2.5559    0.0000 C   0  0  0  0  0  0  0  0  0  0  0  0
    4.4270    3.3809    0.0000 O   0  0  0  0  0  0  0  0  0  0  0  0
    5.1414    2.1434    0.0000 C   0  0  0  0  0  0  0  0  0  0  0  0
    5.8559    2.5559    0.0000 C   0  0  0  0  0  0  0  0  0  0  0  0
    6.5704    2.1434    0.0000 C   0  0  0  0  0  0  0  0  0  0  0  0
    6.5704    1.3184    0.0000 O   0  0  0  0  0  0  0  0  0  0  0  0
    7.2849    2.5559    0.0000 O   0  0  0  0  0  0  0  0  0  0  0  0
    7.9993    2.1434    0.0000 C   0  0  0  0  0  0  0  0  0  0  0  0
    8.7138    2.5559    0.0000 C   0  0  0  0  0  0  0  0  0  0  0  0
    7.9993    1.3184    0.0000 C   0  0  0  0  0  0  0  0  0  0  0  0
  1  2  1  0  0  0  0
  2  3  1  0  0  0  0
  2  4  1  0  0  0  0
  4  5  1  0  0  0  0
  5  6  2  0  0  0  0
  5  7  1  0  0  0  0
  7  8  1  0  0  0  0
  8  9  1  0  0  0  0
  9 10  2  0  0  0  0
  9 11  1  0  0  0  0
 11 12  1  0  0  0  0
 12 13  1  0  0  0  0
 12 14  1  0  0  0  0
M  END
> <RowID>
629

> <Original_SMILES>
CC(C)OC(=O)CCC(=O)OC(C)C

> <Canonical_QSARr>
CC(C)OC(=O)CCC(=O)OC(C)C

> <InChI_Code_QSARr>
InChI=1S/C10H18O4/c1-7(2)13-9(11)5-6-10(12)14-8(3)4/h7-8H,5-6H2,1-4H3

> <InChI Key_QSARr>
YPLYFEUBZLLLIY-UHFFFAOYSA-N

> <Salt_Solvent>


> <Salt_Solvent_ID>
0

> <Number of connected components>
1

$$$$
Molecule_631
  Mrv2316 01072400032D          

 20 19  0  0  0  0            999 V2000
    5.3328   -2.5854    0.0000 O   0  0  0  0  0  0  0  0  0  0  0  0
    4.5226   -2.7413    0.0000 C   0  0  0  0  0  0  0  0  0  0  0  0
    4.2526   -3.5209    0.0000 O   0  0  0  0  0  0  0  0  0  0  0  0
    3.9825   -2.1177    0.0000 C   0  0  0  0  0  0  0  0  0  0  0  0
    4.2526   -1.3381    0.0000 N   0  0  0  0  0  0  0  0  0  0  0  0
    3.7125   -0.7145    0.0000 C   0  0  0  0  0  0  0  0  0  0  0  0
    2.9024   -0.8704    0.0000 C   0  0  0  0  0  0  0  0  0  0  0  0
    2.6323   -1.6499    0.0000 O   0  0  0  0  0  0  0  0  0  0  0  0
    2.3623   -0.2467    0.0000 O   0  0  0  0  0  0  0  0  0  0  0  0
    5.0627   -1.1822    0.0000 C   0  0  0  0  0  0  0  0  0  0  0  0
    5.3328   -0.4027    0.0000 C   0  0  0  0  0  0  0  0  0  0  0  0
    6.1429   -0.2467    0.0000 N   0  0  0  0  0  0  0  0  0  0  0  0
    6.4129    0.5328    0.0000 C   0  0  0  0  0  0  0  0  0  0  0  0
    5.8729    1.1564    0.0000 C   0  0  0  0  0  0  0  0  0  0  0  0
    6.1429    1.9360    0.0000 O   0  0  0  0  0  0  0  0  0  0  0  0
    5.0627    1.0005    0.0000 O   0  0  0  0  0  0  0  0  0  0  0  0
    6.6830   -0.8704    0.0000 C   0  0  0  0  0  0  0  0  0  0  0  0
    7.4931   -0.7145    0.0000 C   0  0  0  0  0  0  0  0  0  0  0  0
    7.7632    0.0651    0.0000 O   0  0  0  0  0  0  0  0  0  0  0  0
    8.0332   -1.3381    0.0000 O   0  0  0  0  0  0  0  0  0  0  0  0
  1  2  1  0  0  0  0
  2  3  2  0  0  0  0
  2  4  1  0  0  0  0
  4  5  1  0  0  0  0
  5  6  1  0  0  0  0
  6  7  1  0  0  0  0
  7  8  1  0  0  0  0
  7  9  2  0  0  0  0
  5 10  1  0  0  0  0
 10 11  1  0  0  0  0
 11 12  1  0  0  0  0
 12 13  1  0  0  0  0
 13 14  1  0  0  0  0
 14 15  1  0  0  0  0
 14 16  2  0  0  0  0
 12 17  1  0  0  0  0
 17 18  1  0  0  0  0
 18 19  1  0  0  0  0
 18 20  2  0  0  0  0
M  END
> <RowID>
631

> <Original_SMILES>
[K+].[Fe+3].[O-]C(=O)CN(CC([O-])=O)CCN(CC([O-])=O)CC([O-])=O

> <Canonical_QSARr>
OC(=O)CN(CC(O)=O)CCN(CC(O)=O)CC(O)=O

> <InChI_Code_QSARr>
InChI=1S/C10H16N2O8/c13-7(14)3-11(4-8(15)16)1-2-12(5-9(17)18)6-10(19)20/h1-6H2,(H,13,14)(H,15,16)(H,17,18)(H,19,20)

> <InChI Key_QSARr>
KCXVZYZYPLLWCC-UHFFFAOYSA-N

> <Salt_Solvent>
[K+].[Fe+3]

> <Salt_Solvent_ID>
225

> <Number of connected components>
3

$$$$
Molecule_632
  Mrv2316 01072400032D          

 26 28  0  0  0  0            999 V2000
    7.1447  -13.2000    0.0000 N   0  0  0  0  0  0  0  0  0  0  0  0
    6.4302  -12.7875    0.0000 C   0  0  0  0  0  0  0  0  0  0  0  0
    5.7158  -12.3750    0.0000 C   0  0  0  0  0  0  0  0  0  0  0  0
    5.7158  -11.5500    0.0000 C   0  0  0  0  0  0  0  0  0  0  0  0
    5.0013  -11.1375    0.0000 C   0  0  0  0  0  0  0  0  0  0  0  0
    5.0013  -10.3125    0.0000 C   0  0  0  0  0  0  0  0  0  0  0  0
    5.7158   -9.9000    0.0000 C   0  0  0  0  0  0  0  0  0  0  0  0
    5.7158   -9.0750    0.0000 C   0  0  0  0  0  0  0  0  0  0  0  0
    6.4302   -8.6625    0.0000 C   0  0  0  0  0  0  0  0  0  0  0  0
    6.4302   -7.8375    0.0000 C   0  0  0  0  0  0  0  0  0  0  0  0
    5.7158   -7.4250    0.0000 C   0  0  0  0  0  0  0  0  0  0  0  0
    5.7158   -6.6000    0.0000 C   0  0  0  0  0  0  0  0  0  0  0  0
    6.4302   -6.1875    0.0000 C   0  0  0  0  0  0  0  0  0  0  0  0
    6.4302   -5.3625    0.0000 C   0  0  0  0  0  0  0  0  0  0  0  0
    7.1447   -4.9500    0.0000 C   0  0  0  0  0  0  0  0  0  0  0  0
    7.1447   -4.1250    0.0000 C   0  0  0  0  0  0  0  0  0  0  0  0
    6.4302   -3.7125    0.0000 C   0  0  0  0  0  0  0  0  0  0  0  0
    6.4302   -2.8875    0.0000 C   0  0  0  0  0  0  0  0  0  0  0  0
    6.4302   -2.0625    0.0000 N   0  0  0  0  0  0  0  0  0  0  0  0
    5.7158   -4.1250    0.0000 C   0  0  0  0  0  0  0  0  0  0  0  0
    5.7158   -4.9500    0.0000 C   0  0  0  0  0  0  0  0  0  0  0  0
    5.0013   -7.8375    0.0000 C   0  0  0  0  0  0  0  0  0  0  0  0
    5.0013   -8.6625    0.0000 C   0  0  0  0  0  0  0  0  0  0  0  0
    4.2868  -11.5500    0.0000 C   0  0  0  0  0  0  0  0  0  0  0  0
    4.2868  -12.3750    0.0000 C   0  0  0  0  0  0  0  0  0  0  0  0
    5.0013  -12.7875    0.0000 C   0  0  0  0  0  0  0  0  0  0  0  0
  1  2  3  0  0  0  0
  2  3  1  0  0  0  0
  4  3  1  0  0  0  0
  5  4  2  0  0  0  0
  6  5  1  4  0  0  0
  6  7  2  0  0  0  0
  7  8  1  0  0  0  0
  9  8  1  0  0  0  0
 10  9  2  0  0  0  0
 11 10  1  0  0  0  0
 12 11  1  4  0  0  0
 12 13  2  0  0  0  0
 13 14  1  0  0  0  0
 15 14  1  0  0  0  0
 16 15  2  0  0  0  0
 17 16  1  0  0  0  0
 17 18  1  0  0  0  0
 18 19  3  0  0  0  0
 20 17  2  0  0  0  0
 21 20  1  0  0  0  0
 14 21  2  0  0  0  0
 22 11  2  0  0  0  0
 23 22  1  0  0  0  0
  8 23  2  0  0  0  0
 24  5  1  0  0  0  0
 25 24  2  0  0  0  0
 26 25  1  0  0  0  0
  3 26  2  0  0  0  0
M  END
> <RowID>
632

> <Original_SMILES>
N#CC1C=C(C=CC=1)C=CC1C=CC(C=CC2C=CC(=CC=2)C#N)=CC=1

> <Canonical_QSARr>
N#CC1C=C(C=CC=1)C=CC1C=CC(C=CC2C=CC(=CC=2)C#N)=CC=1

> <InChI_Code_QSARr>
InChI=1S/C24H16N2/c25-17-23-14-11-21(12-15-23)9-6-19-4-7-20(8-5-19)10-13-22-2-1-3-24(16-22)18-26/h1-16H

> <InChI Key_QSARr>
XSPWINZRSAKTKX-UHFFFAOYSA-N

> <Salt_Solvent>


> <Salt_Solvent_ID>
0

> <Number of connected components>
1

$$$$
Molecule_633
  Mrv2316 01072400032D          

 28 29  0  0  0  0            999 V2000
    2.1434   -5.9223    0.0000 C   0  0  0  0  0  0  0  0  0  0  0  0
    1.4289   -5.5098    0.0000 C   0  0  0  0  0  0  0  0  0  0  0  0
    0.7145   -5.9223    0.0000 O   0  0  0  0  0  0  0  0  0  0  0  0
    1.4289   -4.6848    0.0000 C   0  0  0  0  0  0  0  0  0  0  0  0
    0.7145   -4.2723    0.0000 N   0  0  0  0  0  0  0  0  0  0  0  0
    0.7145   -3.4473    0.0000 N   0  0  0  0  0  0  0  0  0  0  0  0
    0.0000   -3.0348    0.0000 C   0  0  0  0  0  0  0  0  0  0  0  0
    0.0000   -2.2098    0.0000 C   0  0  0  0  0  0  0  0  0  0  0  0
   -0.7145   -1.7973    0.0000 C   0  0  0  0  0  0  0  0  0  0  0  0
   -1.4289   -2.2098    0.0000 C   0  0  0  0  0  0  0  0  0  0  0  0
   -2.1434   -1.7973    0.0000 N   0  3  0  0  0  0  0  0  0  0  0  0
   -2.8579   -2.2098    0.0000 O   0  5  0  0  0  0  0  0  0  0  0  0
   -2.1434   -0.9723    0.0000 O   0  0  0  0  0  0  0  0  0  0  0  0
   -1.4289   -3.0348    0.0000 C   0  0  0  0  0  0  0  0  0  0  0  0
   -0.7145   -3.4473    0.0000 C   0  0  0  0  0  0  0  0  0  0  0  0
   -0.7145   -4.2723    0.0000 O   0  0  0  0  0  0  0  0  0  0  0  0
    0.0000   -4.6848    0.0000 C   0  0  0  0  0  0  0  0  0  0  0  0
    2.1434   -4.2723    0.0000 C   0  0  0  0  0  0  0  0  0  0  0  0
    2.1434   -3.4473    0.0000 O   0  0  0  0  0  0  0  0  0  0  0  0
    2.8579   -4.6848    0.0000 N   0  0  0  0  0  0  0  0  0  0  0  0
    3.5724   -4.2723    0.0000 C   0  0  0  0  0  0  0  0  0  0  0  0
    4.2868   -4.6848    0.0000 C   0  0  0  0  0  0  0  0  0  0  0  0
    5.0013   -4.2723    0.0000 C   0  0  0  0  0  0  0  0  0  0  0  0
    5.0013   -3.4473    0.0000 C   0  0  0  0  0  0  0  0  0  0  0  0
    4.2868   -3.0348    0.0000 C   0  0  0  0  0  0  0  0  0  0  0  0
    3.5724   -3.4473    0.0000 C   0  0  0  0  0  0  0  0  0  0  0  0
    2.8579   -3.0348    0.0000 O   0  0  0  0  0  0  0  0  0  0  0  0
    2.8579   -2.2098    0.0000 C   0  0  0  0  0  0  0  0  0  0  0  0
  1  2  1  0  0  0  0
  2  3  2  0  0  0  0
  2  4  1  0  0  0  0
  5  4  1  4  0  0  0
  5  6  2  0  0  0  0
  6  7  1  0  0  0  0
  8  7  2  0  0  0  0
  9  8  1  0  0  0  0
 10  9  2  0  0  0  0
 10 11  1  0  0  0  0
 11 12  1  0  0  0  0
 11 13  2  0  0  0  0
 14 10  1  0  0  0  0
 15 14  2  0  0  0  0
  7 15  1  0  0  0  0
 15 16  1  0  0  0  0
 16 17  1  0  0  0  0
  4 18  1  0  0  0  0
 18 19  2  0  0  0  0
 18 20  1  0  0  0  0
 20 21  1  0  0  0  0
 22 21  2  0  0  0  0
 23 22  1  0  0  0  0
 24 23  2  0  0  0  0
 25 24  1  0  0  0  0
 26 25  2  0  0  0  0
 21 26  1  0  0  0  0
 26 27  1  0  0  0  0
 27 28  1  0  0  0  0
M  CHG  2  11   1  12  -1
M  END
> <RowID>
633

> <Original_SMILES>
CC(=O)C(N=NC1=CC=C(C=C1OC)[N+]([O-])=O)C(=O)NC1=CC=CC=C1OC

> <Canonical_QSARr>
CC(=O)C(N=NC1=CC=C(C=C1OC)[N+]([O-])=O)C(=O)NC1=CC=CC=C1OC

> <InChI_Code_QSARr>
InChI=1S/C18H18N4O6/c1-11(23)17(18(24)19-13-6-4-5-7-15(13)27-2)21-20-14-9-8-12(22(25)26)10-16(14)28-3/h4-10,17H,1-3H3,(H,19,24)

> <InChI Key_QSARr>
ZTISORAUJJGACZ-UHFFFAOYSA-N

> <Salt_Solvent>


> <Salt_Solvent_ID>
0

> <Number of connected components>
1

$$$$
Molecule_634
  Mrv2316 01072400032D          

 10  9  0  0  0  0            999 V2000
    1.0461    1.4289    0.0000 N   0  0  0  0  0  0  0  0  0  0  0  0
    1.7605    1.8414    0.0000 C   0  0  0  0  0  0  0  0  0  0  0  0
    2.4750    1.4289    0.0000 C   0  0  0  0  0  0  0  0  0  0  0  0
    3.1895    1.8414    0.0000 C   0  0  0  0  0  0  0  0  0  0  0  0
    3.9039    1.4289    0.0000 C   0  0  0  0  0  0  0  0  0  0  0  0
    4.6184    1.8414    0.0000 C   0  0  0  0  0  0  0  0  0  0  0  0
    5.3329    1.4289    0.0000 C   0  0  0  0  0  0  0  0  0  0  0  0
    6.0474    1.8414    0.0000 O   0  0  0  0  0  0  0  0  0  0  0  0
    5.3329    0.6039    0.0000 O   0  0  0  0  0  0  0  0  0  0  0  0
    4.6184    2.6664    0.0000 N   0  0  0  0  0  0  0  0  0  0  0  0
  1  2  1  0  0  0  0
  2  3  1  0  0  0  0
  3  4  1  0  0  0  0
  4  5  1  0  0  0  0
  5  6  1  0  0  0  0
  6  7  1  0  0  0  0
  7  8  2  0  0  0  0
  7  9  1  0  0  0  0
  6 10  1  0  0  0  0
M  END
> <RowID>
634

> <Original_SMILES>
Cl.NCCCCC(N)C(O)=O

> <Canonical_QSARr>
NCCCCC(N)C(O)=O

> <InChI_Code_QSARr>
InChI=1S/C6H14N2O2/c7-4-2-1-3-5(8)6(9)10/h5H,1-4,7-8H2,(H,9,10)

> <InChI Key_QSARr>
KDXKERNSBIXSRK-UHFFFAOYSA-N

> <Salt_Solvent>
Cl

> <Salt_Solvent_ID>
170

> <Number of connected components>
2

$$$$
Molecule_637
  Mrv2316 01072400032D          

 24 25  0  0  0  0            999 V2000
    2.4198   -6.0007    0.0000 C   0  0  0  0  0  0  0  0  0  0  0  0
    1.9349   -5.3332    0.0000 C   0  0  0  0  0  0  0  0  0  0  0  0
    2.1898   -4.5486    0.0000 N   0  0  0  0  0  0  0  0  0  0  0  0
    1.5224   -4.0637    0.0000 C   0  0  0  0  0  0  0  0  0  0  0  0
    1.5224   -3.2387    0.0000 C   0  0  0  0  0  0  0  0  0  0  0  0
    2.2369   -2.8262    0.0000 C   0  0  0  0  0  0  0  0  0  0  0  0
    2.2369   -2.0012    0.0000 C   0  0  0  0  0  0  0  0  0  0  0  0
    2.9513   -1.5887    0.0000 C   0  0  0  0  0  0  0  0  0  0  0  0
    3.6658   -1.1762    0.0000 N   0  0  0  0  0  0  0  0  0  0  0  0
    1.5224   -1.5887    0.0000 C   0  0  0  0  0  0  0  0  0  0  0  0
    1.5224   -0.7637    0.0000 O   0  0  0  0  0  0  0  0  0  0  0  0
    0.8079   -0.3512    0.0000 C   0  0  0  0  0  0  0  0  0  0  0  0
    0.8079    0.4738    0.0000 C   0  0  0  0  0  0  0  0  0  0  0  0
    0.0934    0.8863    0.0000 C   0  0  0  0  0  0  0  0  0  0  0  0
    1.5224    0.8863    0.0000 C   0  0  0  0  0  0  0  0  0  0  0  0
    0.8079   -2.0012    0.0000 C   0  0  0  0  0  0  0  0  0  0  0  0
    0.8079   -2.8262    0.0000 C   0  0  0  0  0  0  0  0  0  0  0  0
    0.8549   -4.5486    0.0000 S   0  0  0  0  0  0  0  0  0  0  0  0
    1.1099   -5.3332    0.0000 C   0  0  0  0  0  0  0  0  0  0  0  0
    0.6250   -6.0007    0.0000 C   0  0  0  0  0  0  0  0  0  0  0  0
   -0.1955   -5.9144    0.0000 O   0  0  0  0  0  0  0  0  0  0  0  0
    0.9605   -6.7544    0.0000 O   0  0  0  0  0  0  0  0  0  0  0  0
    0.4756   -7.4218    0.0000 C   0  0  0  0  0  0  0  0  0  0  0  0
    0.8112   -8.1755    0.0000 C   0  0  0  0  0  0  0  0  0  0  0  0
  1  2  1  0  0  0  0
  3  2  1  0  0  0  0
  4  3  2  0  0  0  0
  4  5  1  0  0  0  0
  6  5  1  0  0  0  0
  7  6  2  0  0  0  0
  7  8  1  0  0  0  0
  8  9  3  0  0  0  0
 10  7  1  0  0  0  0
 10 11  1  0  0  0  0
 11 12  1  0  0  0  0
 12 13  1  0  0  0  0
 13 14  1  0  0  0  0
 13 15  1  0  0  0  0
 16 10  2  0  0  0  0
 17 16  1  0  0  0  0
  5 17  2  0  0  0  0
 18  4  1  0  0  0  0
 19 18  1  0  0  0  0
  2 19  2  0  0  0  0
 19 20  1  0  0  0  0
 20 21  2  0  0  0  0
 20 22  1  0  0  0  0
 22 23  1  0  0  0  0
 23 24  1  0  0  0  0
M  END
> <RowID>
637

> <Original_SMILES>
CC1N=C(SC=1C(=O)OCC)C1C=C(C#N)C(=CC=1)OCC(C)C

> <Canonical_QSARr>
CC1N=C(SC=1C(=O)OCC)C1C=C(C#N)C(=CC=1)OCC(C)C

> <InChI_Code_QSARr>
InChI=1S/C18H20N2O3S/c1-5-22-18(21)16-12(4)20-17(24-16)13-6-7-15(14(8-13)9-19)23-10-11(2)3/h6-8,11H,5,10H2,1-4H3

> <InChI Key_QSARr>
OGAZOYHQFBSRMC-UHFFFAOYSA-N

> <Salt_Solvent>


> <Salt_Solvent_ID>
0

> <Number of connected components>
1

$$$$
Molecule_638
  Mrv2316 01072400032D          

 26 28  0  0  0  0            999 V2000
    3.5354   -4.8453    0.0000 O   0  0  0  0  0  0  0  0  0  0  0  0
    3.5354   -4.0203    0.0000 C   0  0  0  0  0  0  0  0  0  0  0  0
    2.8209   -3.6078    0.0000 C   0  0  0  0  0  0  0  0  0  0  0  0
    2.8209   -2.7828    0.0000 C   0  0  0  0  0  0  0  0  0  0  0  0
    2.1065   -2.3703    0.0000 C   0  0  0  0  0  0  0  0  0  0  0  0
    2.1065   -1.5453    0.0000 C   0  0  0  0  0  0  0  0  0  0  0  0
    2.8209   -1.1328    0.0000 O   0  0  0  0  0  0  0  0  0  0  0  0
    1.3920   -1.1328    0.0000 N   0  0  0  0  0  0  0  0  0  0  0  0
    1.4537   -0.3101    0.0000 C   0  0  0  0  0  0  0  0  0  0  0  0
    0.8489    0.2510    0.0000 C   0  0  0  0  0  0  0  0  0  0  0  0
    0.0331    0.1280    0.0000 C   0  0  0  0  0  0  0  0  0  0  0  0
   -0.3794   -0.5864    0.0000 C   0  0  0  0  0  0  0  0  0  0  0  0
   -0.0780   -1.3544    0.0000 C   0  0  0  0  0  0  0  0  0  0  0  0
    0.7104   -1.5976    0.0000 C   0  0  0  0  0  0  0  0  0  0  0  0
    0.8333   -2.4134    0.0000 O   0  0  0  0  0  0  0  0  0  0  0  0
    1.3920   -2.7828    0.0000 C   0  0  0  0  0  0  0  0  0  0  0  0
    1.3920   -3.6078    0.0000 C   0  0  0  0  0  0  0  0  0  0  0  0
    2.1065   -4.0203    0.0000 C   0  0  0  0  0  0  0  0  0  0  0  0
    4.2499   -3.6078    0.0000 N   0  0  0  0  0  0  0  0  0  0  0  0
    4.9315   -4.0726    0.0000 C   0  0  0  0  0  0  0  0  0  0  0  0
    5.7199   -3.8294    0.0000 C   0  0  0  0  0  0  0  0  0  0  0  0
    6.0213   -3.0614    0.0000 C   0  0  0  0  0  0  0  0  0  0  0  0
    5.6088   -2.3470    0.0000 C   0  0  0  0  0  0  0  0  0  0  0  0
    4.7930   -2.2240    0.0000 C   0  0  0  0  0  0  0  0  0  0  0  0
    4.1882   -2.7851    0.0000 C   0  0  0  0  0  0  0  0  0  0  0  0
    3.4203   -2.4837    0.0000 O   0  0  0  0  0  0  0  0  0  0  0  0
  1  2  2  0  0  0  0
  2  3  1  0  0  0  0
  4  3  1  0  0  0  0
  5  4  2  0  0  0  0
  5  6  1  0  0  0  0
  6  7  2  0  0  0  0
  6  8  1  0  0  0  0
  9  8  1  0  0  0  0
 10  9  1  0  0  0  0
 11 10  1  0  0  0  0
 12 11  1  0  0  0  0
 13 12  1  0  0  0  0
 14 13  1  0  0  0  0
  8 14  1  0  0  0  0
 14 15  2  0  0  0  0
 16  5  1  0  0  0  0
 17 16  2  0  0  0  0
 18 17  1  0  0  0  0
  3 18  2  0  0  0  0
  2 19  1  0  0  0  0
 20 19  1  0  0  0  0
 21 20  1  0  0  0  0
 22 21  1  0  0  0  0
 23 22  1  0  0  0  0
 24 23  1  0  0  0  0
 25 24  1  0  0  0  0
 19 25  1  0  0  0  0
 25 26  2  0  0  0  0
M  END
> <RowID>
638

> <Original_SMILES>
O=C(C1C=C(C=CC=1)C(=O)N1CCCCCC1=O)N1CCCCCC1=O

> <Canonical_QSARr>
O=C(C1C=C(C=CC=1)C(=O)N1CCCCCC1=O)N1CCCCCC1=O

> <InChI_Code_QSARr>
InChI=1S/C20H24N2O4/c23-17-10-3-1-5-12-21(17)19(25)15-8-7-9-16(14-15)20(26)22-13-6-2-4-11-18(22)24/h7-9,14H,1-6,10-13H2

> <InChI Key_QSARr>
HXZRLUTUNSQNCG-UHFFFAOYSA-N

> <Salt_Solvent>


> <Salt_Solvent_ID>
0

> <Number of connected components>
1

$$$$
Molecule_639
  Mrv2316 01072400032D          

  9  8  0  0  0  0            999 V2000
    1.9520    1.9520    0.0000 N   0  0  0  0  0  0  0  0  0  0  0  0
    1.9520    1.1270    0.0000 C   0  0  0  0  0  0  0  0  0  0  0  0
    1.2375    0.7145    0.0000 C   0  0  0  0  0  0  0  0  0  0  0  0
    0.5230    1.1270    0.0000 C   0  0  0  0  0  0  0  0  0  0  0  0
   -0.1914    0.7145    0.0000 O   0  0  0  0  0  0  0  0  0  0  0  0
    0.5230    1.9520    0.0000 O   0  0  0  0  0  0  0  0  0  0  0  0
    2.6664    0.7145    0.0000 C   0  0  0  0  0  0  0  0  0  0  0  0
    3.3809    1.1270    0.0000 O   0  0  0  0  0  0  0  0  0  0  0  0
    2.6664   -0.1105    0.0000 O   0  0  0  0  0  0  0  0  0  0  0  0
  1  2  1  0  0  0  0
  2  3  1  0  0  0  0
  3  4  1  0  0  0  0
  4  5  1  0  0  0  0
  4  6  2  0  0  0  0
  2  7  1  0  0  0  0
  7  8  1  0  0  0  0
  7  9  2  0  0  0  0
M  END
> <RowID>
639

> <Original_SMILES>
NC(CC(O)=O)C(O)=O

> <Canonical_QSARr>
NC(CC(O)=O)C(O)=O

> <InChI_Code_QSARr>
InChI=1S/C4H7NO4/c5-2(4(8)9)1-3(6)7/h2H,1,5H2,(H,6,7)(H,8,9)

> <InChI Key_QSARr>
CKLJMWTZIZZHCS-UHFFFAOYSA-N

> <Salt_Solvent>


> <Salt_Solvent_ID>
0

> <Number of connected components>
1

$$$$
Molecule_640
  Mrv2316 01072400032D          

 33 36  0  0  0  0            999 V2000
   -3.6962    1.8135    0.0000 C   0  0  0  0  0  0  0  0  0  0  0  0
   -2.8712    1.8135    0.0000 C   0  0  0  0  0  0  0  0  0  0  0  0
   -2.8712    2.6385    0.0000 C   0  0  0  0  0  0  0  0  0  0  0  0
   -2.8712    0.9885    0.0000 C   0  0  0  0  0  0  0  0  0  0  0  0
   -2.0462    1.8135    0.0000 C   0  0  0  0  0  0  0  0  0  0  0  0
   -1.6337    1.0991    0.0000 C   0  0  0  0  0  0  0  0  0  0  0  0
   -2.3482    0.6866    0.0000 C   0  0  0  0  0  0  0  0  0  0  0  0
   -0.9192    1.5116    0.0000 C   0  0  0  0  0  0  0  0  0  0  0  0
   -1.2212    0.3846    0.0000 C   0  0  0  0  0  0  0  0  0  0  0  0
   -1.6337   -0.3299    0.0000 C   0  0  0  0  0  0  0  0  0  0  0  0
   -1.2212   -1.0443    0.0000 C   0  0  0  0  0  0  0  0  0  0  0  0
   -1.6337   -1.7588    0.0000 C   0  0  0  0  0  0  0  0  0  0  0  0
   -0.9192   -2.1713    0.0000 C   0  0  0  0  0  0  0  0  0  0  0  0
   -2.3482   -1.3463    0.0000 C   0  0  0  0  0  0  0  0  0  0  0  0
   -2.0462   -2.4733    0.0000 C   0  0  0  0  0  0  0  0  0  0  0  0
   -2.8712   -2.4733    0.0000 C   0  0  0  0  0  0  0  0  0  0  0  0
   -3.2837   -3.1878    0.0000 C   0  0  0  0  0  0  0  0  0  0  0  0
   -2.8712   -3.9022    0.0000 C   0  0  0  0  0  0  0  0  0  0  0  0
   -2.0462   -3.9022    0.0000 C   0  0  0  0  0  0  0  0  0  0  0  0
   -1.6337   -3.1878    0.0000 C   0  0  0  0  0  0  0  0  0  0  0  0
   -0.3962   -1.0443    0.0000 C   0  0  0  0  0  0  0  0  0  0  0  0
    0.0163   -1.7588    0.0000 O   0  0  0  0  0  0  0  0  0  0  0  0
    0.0163   -0.3299    0.0000 C   0  0  0  0  0  0  0  0  0  0  0  0
    0.8413   -0.3299    0.0000 N   0  0  0  0  0  0  0  0  0  0  0  0
    1.3262    0.3376    0.0000 N   0  0  0  0  0  0  0  0  0  0  0  0
    2.1108    0.0826    0.0000 C   0  0  0  0  0  0  0  0  0  0  0  0
    2.8253    0.4951    0.0000 C   0  0  0  0  0  0  0  0  0  0  0  0
    3.5398    0.0826    0.0000 C   0  0  0  0  0  0  0  0  0  0  0  0
    3.5398   -0.7424    0.0000 C   0  0  0  0  0  0  0  0  0  0  0  0
    2.8253   -1.1549    0.0000 C   0  0  0  0  0  0  0  0  0  0  0  0
    2.1108   -0.7424    0.0000 C   0  0  0  0  0  0  0  0  0  0  0  0
    1.3262   -0.9973    0.0000 N   0  0  0  0  0  0  0  0  0  0  0  0
   -0.3962    0.3846    0.0000 C   0  0  0  0  0  0  0  0  0  0  0  0
  1  2  1  0  0  0  0
  2  3  1  0  0  0  0
  2  4  1  0  0  0  0
  2  5  1  0  0  0  0
  5  6  1  0  0  0  0
  6  7  1  0  0  0  0
  6  8  1  0  0  0  0
  6  9  1  0  0  0  0
 10  9  1  0  0  0  0
 11 10  2  0  0  0  0
 11 12  1  0  0  0  0
 12 13  1  0  0  0  0
 12 14  1  0  0  0  0
 12 15  1  0  0  0  0
 16 15  1  0  0  0  0
 17 16  2  0  0  0  0
 18 17  1  0  0  0  0
 19 18  2  0  0  0  0
 20 19  1  0  0  0  0
 15 20  2  0  0  0  0
 21 11  1  0  0  0  0
 21 22  1  0  0  0  0
 23 21  2  0  0  0  0
 23 24  1  0  0  0  0
 25 24  1  0  0  0  0
 26 25  2  0  0  0  0
 26 27  1  0  0  0  0
 27 28  2  0  0  0  0
 28 29  1  0  0  0  0
 29 30  2  0  0  0  0
 30 31  1  0  0  0  0
 31 26  1  0  0  0  0
 32 31  2  0  0  0  0
 24 32  1  0  0  0  0
 33 23  1  0  0  0  0
  9 33  2  0  0  0  0
M  END
> <RowID>
640

> <Original_SMILES>
CC(C)(C)CC(C)(C)C1C=C(C(O)=C(C=1)N1N=C2C=CC=CC2=N1)C(C)(C)C1C=CC=CC=1

> <Canonical_QSARr>
CC(C)(C)CC(C)(C)C1C=C(C(O)=C(C=1)N1N=C2C=CC=CC2=N1)C(C)(C)C1C=CC=CC=1

> <InChI_Code_QSARr>
InChI=1S/C29H35N3O/c1-27(2,3)19-28(4,5)21-17-22(29(6,7)20-13-9-8-10-14-20)26(33)25(18-21)32-30-23-15-11-12-16-24(23)31-32/h8-18,33H,19H2,1-7H3

> <InChI Key_QSARr>
UZUNCLSDTUBVCN-UHFFFAOYSA-N

> <Salt_Solvent>


> <Salt_Solvent_ID>
0

> <Number of connected components>
1

$$$$
Molecule_641
  Mrv2316 01072400032D          

  9  8  0  0  0  0            999 V2000
    2.9980    2.5559    0.0000 Cl  0  0  0  0  0  0  0  0  0  0  0  0
    3.7125    2.1434    0.0000 C   0  0  0  0  0  0  0  0  0  0  0  0
    4.4270    2.5559    0.0000 C   0  0  0  0  0  0  0  0  0  0  0  0
    5.1414    2.1434    0.0000 O   0  0  0  0  0  0  0  0  0  0  0  0
    5.8559    2.5559    0.0000 C   0  0  0  0  0  0  0  0  0  0  0  0
    6.5704    2.1434    0.0000 O   0  0  0  0  0  0  0  0  0  0  0  0
    7.2849    2.5559    0.0000 C   0  0  0  0  0  0  0  0  0  0  0  0
    7.9993    2.1434    0.0000 C   0  0  0  0  0  0  0  0  0  0  0  0
    8.7138    2.5559    0.0000 Cl  0  0  0  0  0  0  0  0  0  0  0  0
  1  2  1  0  0  0  0
  2  3  1  0  0  0  0
  3  4  1  0  0  0  0
  4  5  1  0  0  0  0
  5  6  1  0  0  0  0
  6  7  1  0  0  0  0
  7  8  1  0  0  0  0
  8  9  1  0  0  0  0
M  END
> <RowID>
641

> <Original_SMILES>
ClCCOCOCCCl

> <Canonical_QSARr>
ClCCOCOCCCl

> <InChI_Code_QSARr>
InChI=1S/C5H10Cl2O2/c6-1-3-8-5-9-4-2-7/h1-5H2

> <InChI Key_QSARr>
NLXGURFLBLRZRO-UHFFFAOYSA-N

> <Salt_Solvent>


> <Salt_Solvent_ID>
0

> <Number of connected components>
1

$$$$
Molecule_642
  Mrv2316 01072400032D          

 36 40  0  0  0  0            999 V2000
   -0.6899   -4.7564    0.0000 C   0  0  0  0  0  0  0  0  0  0  0  0
    0.1170   -4.5849    0.0000 O   0  0  0  0  0  0  0  0  0  0  0  0
    0.3720   -3.8002    0.0000 C   0  0  0  0  0  0  0  0  0  0  0  0
    1.1789   -3.6287    0.0000 C   0  0  0  0  0  0  0  0  0  0  0  0
    1.4339   -2.8441    0.0000 C   0  0  0  0  0  0  0  0  0  0  0  0
    0.8818   -2.2310    0.0000 C   0  0  0  0  0  0  0  0  0  0  0  0
    1.1368   -1.4464    0.0000 N   0  0  0  0  0  0  0  0  0  0  0  0
    0.6519   -0.7789    0.0000 N   0  0  0  0  0  0  0  0  0  0  0  0
    1.1368   -0.1115    0.0000 C   0  0  0  0  0  0  0  0  0  0  0  0
    0.8818    0.6731    0.0000 C   0  0  0  0  0  0  0  0  0  0  0  0
    1.4339    1.2862    0.0000 O   0  0  0  0  0  0  0  0  0  0  0  0
    0.0749    0.8447    0.0000 O   0  0  0  0  0  0  0  0  0  0  0  0
   -0.4772    0.2316    0.0000 C   0  0  0  0  0  0  0  0  0  0  0  0
   -1.2841    0.4031    0.0000 C   0  0  0  0  0  0  0  0  0  0  0  0
    1.9214   -0.3664    0.0000 C   0  0  0  0  0  0  0  0  0  0  0  0
    2.6359    0.0461    0.0000 C   0  0  0  0  0  0  0  0  0  0  0  0
    3.3503   -0.3664    0.0000 C   0  0  0  0  0  0  0  0  0  0  0  0
    3.3503   -1.1914    0.0000 N   0  0  0  0  0  0  0  0  0  0  0  0
    4.0648   -1.6039    0.0000 C   0  0  0  0  0  0  0  0  0  0  0  0
    4.0648   -2.4289    0.0000 C   0  0  0  0  0  0  0  0  0  0  0  0
    4.7793   -2.8414    0.0000 C   0  0  0  0  0  0  0  0  0  0  0  0
    5.4938   -2.4289    0.0000 C   0  0  0  0  0  0  0  0  0  0  0  0
    6.2082   -2.8414    0.0000 N   0  0  0  0  0  0  0  0  0  0  0  0
    6.2082   -3.6664    0.0000 C   0  0  0  0  0  0  0  0  0  0  0  0
    6.9227   -4.0789    0.0000 C   0  0  0  0  0  0  0  0  0  0  0  0
    7.6372   -3.6664    0.0000 C   0  0  0  0  0  0  0  0  0  0  0  0
    7.6372   -2.8414    0.0000 C   0  0  0  0  0  0  0  0  0  0  0  0
    6.9227   -2.4289    0.0000 C   0  0  0  0  0  0  0  0  0  0  0  0
    6.9227   -1.6039    0.0000 O   0  0  0  0  0  0  0  0  0  0  0  0
    5.4938   -1.6039    0.0000 C   0  0  0  0  0  0  0  0  0  0  0  0
    4.7793   -1.1914    0.0000 C   0  0  0  0  0  0  0  0  0  0  0  0
    2.6359   -1.6039    0.0000 C   0  0  0  0  0  0  0  0  0  0  0  0
    2.6359   -2.4289    0.0000 O   0  0  0  0  0  0  0  0  0  0  0  0
    1.9214   -1.1914    0.0000 C   0  0  0  0  0  0  0  0  0  0  0  0
    0.0749   -2.4025    0.0000 C   0  0  0  0  0  0  0  0  0  0  0  0
   -0.1801   -3.1871    0.0000 C   0  0  0  0  0  0  0  0  0  0  0  0
  1  2  1  0  0  0  0
  2  3  1  0  0  0  0
  4  3  1  0  0  0  0
  5  4  2  0  0  0  0
  6  5  1  0  0  0  0
  6  7  1  0  0  0  0
  8  7  1  0  0  0  0
  9  8  2  0  0  0  0
  9 10  1  0  0  0  0
 10 11  2  0  0  0  0
 10 12  1  0  0  0  0
 12 13  1  0  0  0  0
 13 14  1  0  0  0  0
 15  9  1  0  0  0  0
 15 16  1  0  0  0  0
 16 17  1  0  0  0  0
 17 18  1  0  0  0  0
 18 19  1  0  0  0  0
 20 19  1  0  0  0  0
 21 20  2  0  0  0  0
 22 21  1  0  0  0  0
 22 23  1  0  0  0  0
 24 23  1  0  0  0  0
 25 24  1  0  0  0  0
 26 25  1  0  0  0  0
 27 26  1  0  0  0  0
 28 27  1  0  0  0  0
 23 28  1  0  0  0  0
 28 29  2  0  0  0  0
 30 22  2  0  0  0  0
 31 30  1  0  0  0  0
 19 31  2  0  0  0  0
 18 32  1  0  0  0  0
 32 33  2  0  0  0  0
 32 34  1  0  0  0  0
  7 34  1  0  0  0  0
 34 15  2  0  0  0  0
 35  6  2  0  0  0  0
 36 35  1  0  0  0  0
  3 36  2  0  0  0  0
M  END
> <RowID>
642

> <Original_SMILES>
COC1C=CC(=CC=1)N1N=C(C2CCN(C3C=CC(=CC=3)N3CCCCC3=O)C(=O)C1=2)C(=O)OCC

> <Canonical_QSARr>
COC1C=CC(=CC=1)N1N=C(C2CCN(C3C=CC(=CC=3)N3CCCCC3=O)C(=O)C1=2)C(=O)OCC

> <InChI_Code_QSARr>
InChI=1S/C27H28N4O5/c1-3-36-27(34)24-22-15-17-30(19-9-7-18(8-10-19)29-16-5-4-6-23(29)32)26(33)25(22)31(28-24)20-11-13-21(35-2)14-12-20/h7-14H,3-6,15-17H2,1-2H3

> <InChI Key_QSARr>
PULNLYVCJSOXKS-UHFFFAOYSA-N

> <Salt_Solvent>


> <Salt_Solvent_ID>
0

> <Number of connected components>
1

$$$$
Molecule_643
  Mrv2316 01072400032D          

 15 15  0  0  0  0            999 V2000
    1.9053   -0.4950    0.0000 C   0  0  0  0  0  0  0  0  0  0  0  0
    1.1908   -0.0825    0.0000 C   0  0  0  0  0  0  0  0  0  0  0  0
    1.1908    0.7425    0.0000 C   0  0  0  0  0  0  0  0  0  0  0  0
    0.4763    1.1550    0.0000 C   0  0  0  0  0  0  0  0  0  0  0  0
    0.4763    1.9800    0.0000 C   0  0  0  0  0  0  0  0  0  0  0  0
    0.4763    2.8050    0.0000 C   0  0  0  0  0  0  0  0  0  0  0  0
   -0.3487    1.9800    0.0000 C   0  0  0  0  0  0  0  0  0  0  0  0
    1.3013    1.9800    0.0000 C   0  0  0  0  0  0  0  0  0  0  0  0
   -0.2382    0.7425    0.0000 C   0  0  0  0  0  0  0  0  0  0  0  0
   -0.2382   -0.0825    0.0000 C   0  0  0  0  0  0  0  0  0  0  0  0
   -0.9526   -0.4950    0.0000 C   0  0  0  0  0  0  0  0  0  0  0  0
    0.4763   -0.4950    0.0000 C   0  0  0  0  0  0  0  0  0  0  0  0
    0.4763   -1.3200    0.0000 C   0  0  0  0  0  0  0  0  0  0  0  0
    1.1908   -1.7325    0.0000 C   0  0  0  0  0  0  0  0  0  0  0  0
    1.9053   -2.1450    0.0000 N   0  0  0  0  0  0  0  0  0  0  0  0
  1  2  1  0  0  0  0
  3  2  2  0  0  0  0
  4  3  1  0  0  0  0
  4  5  1  0  0  0  0
  5  6  1  0  0  0  0
  5  7  1  0  0  0  0
  5  8  1  0  0  0  0
  9  4  2  0  0  0  0
 10  9  1  0  0  0  0
 10 11  1  0  0  0  0
 12 10  2  0  0  0  0
  2 12  1  0  0  0  0
 12 13  1  0  0  0  0
 13 14  1  0  0  0  0
 14 15  3  0  0  0  0
M  END
> <RowID>
643

> <Original_SMILES>
CC1=CC(=CC(C)=C1CC#N)C(C)(C)C

> <Canonical_QSARr>
CC1=CC(=CC(C)=C1CC#N)C(C)(C)C

> <InChI_Code_QSARr>
InChI=1S/C14H19N/c1-10-8-12(14(3,4)5)9-11(2)13(10)6-7-15/h8-9H,6H2,1-5H3

> <InChI Key_QSARr>
ZUXNULGHCOXCFL-UHFFFAOYSA-N

> <Salt_Solvent>


> <Salt_Solvent_ID>
0

> <Number of connected components>
1

$$$$
Molecule_645
  Mrv2316 01072400032D          

 32 33  0  0  0  0            999 V2000
    2.7803   -4.3367    0.0000 C   0  0  0  0  0  0  0  0  0  0  0  0
    3.1928   -3.6223    0.0000 C   0  0  0  0  0  0  0  0  0  0  0  0
    3.6053   -2.9078    0.0000 C   0  0  0  0  0  0  0  0  0  0  0  0
    2.4783   -3.2098    0.0000 O   0  0  0  0  0  0  0  0  0  0  0  0
    2.4783   -2.3848    0.0000 C   0  0  0  0  0  0  0  0  0  0  0  0
    3.1928   -1.9723    0.0000 O   0  0  0  0  0  0  0  0  0  0  0  0
    1.7638   -1.9723    0.0000 C   0  0  0  0  0  0  0  0  0  0  0  0
    1.7638   -1.1473    0.0000 C   0  0  0  0  0  0  0  0  0  0  0  0
    1.0494   -0.7348    0.0000 C   0  0  0  0  0  0  0  0  0  0  0  0
    1.0494    0.0902    0.0000 N   0  0  0  0  0  0  0  0  0  0  0  0
    1.7638    0.5027    0.0000 C   0  0  0  0  0  0  0  0  0  0  0  0
    2.4783    0.0902    0.0000 O   0  0  0  0  0  0  0  0  0  0  0  0
    1.7638    1.3277    0.0000 C   0  0  0  0  0  0  0  0  0  0  0  0
    1.0494    1.7402    0.0000 C   0  0  0  0  0  0  0  0  0  0  0  0
    1.0494    2.5652    0.0000 C   0  0  0  0  0  0  0  0  0  0  0  0
    1.0494    3.3902    0.0000 F   0  0  0  0  0  0  0  0  0  0  0  0
    0.2244    2.5652    0.0000 F   0  0  0  0  0  0  0  0  0  0  0  0
    1.8744    2.5652    0.0000 F   0  0  0  0  0  0  0  0  0  0  0  0
    0.3349    1.3277    0.0000 N   0  0  0  0  0  0  0  0  0  0  0  0
   -0.3796    1.7402    0.0000 C   0  0  0  0  0  0  0  0  0  0  0  0
    0.3349    0.5027    0.0000 C   0  0  0  0  0  0  0  0  0  0  0  0
   -0.3796    0.0902    0.0000 O   0  0  0  0  0  0  0  0  0  0  0  0
    0.3349   -1.1473    0.0000 C   0  0  0  0  0  0  0  0  0  0  0  0
    0.3349   -1.9723    0.0000 C   0  0  0  0  0  0  0  0  0  0  0  0
    1.0494   -2.3848    0.0000 C   0  0  0  0  0  0  0  0  0  0  0  0
    1.0494   -3.2098    0.0000 Cl  0  0  0  0  0  0  0  0  0  0  0  0
    3.9073   -4.0348    0.0000 C   0  0  0  0  0  0  0  0  0  0  0  0
    4.6217   -3.6223    0.0000 O   0  0  0  0  0  0  0  0  0  0  0  0
    3.9073   -4.8598    0.0000 O   0  0  0  0  0  0  0  0  0  0  0  0
    4.6217   -5.2723    0.0000 C   0  0  0  0  0  0  0  0  0  0  0  0
    4.6217   -6.0973    0.0000 C   0  0  0  0  0  0  0  0  0  0  0  0
    5.3362   -6.5098    0.0000 C   0  0  0  0  0  0  0  0  0  0  0  0
  1  2  1  0  0  0  0
  2  3  1  0  0  0  0
  2  4  1  0  0  0  0
  4  5  1  0  0  0  0
  5  6  2  0  0  0  0
  5  7  1  0  0  0  0
  8  7  1  0  0  0  0
  9  8  2  0  0  0  0
  9 10  1  0  0  0  0
 11 10  1  0  0  0  0
 11 12  2  0  0  0  0
 13 11  1  0  0  0  0
 14 13  2  0  0  0  0
 14 15  1  0  0  0  0
 15 16  1  0  0  0  0
 15 17  1  0  0  0  0
 15 18  1  0  0  0  0
 19 14  1  0  0  0  0
 19 20  1  0  0  0  0
 21 19  1  0  0  0  0
 10 21  1  0  0  0  0
 21 22  2  0  0  0  0
 23  9  1  0  0  0  0
 24 23  2  0  0  0  0
 25 24  1  0  0  0  0
  7 25  2  0  0  0  0
 25 26  1  0  0  0  0
  2 27  1  0  0  0  0
 27 28  2  0  0  0  0
 27 29  1  0  0  0  0
 29 30  1  0  0  0  0
 30 31  1  0  0  0  0
 31 32  2  0  0  0  0
M  END
> <RowID>
645

> <Original_SMILES>
CC(C)(OC(=O)C1C=C(C=CC=1Cl)N1C(=O)C=C(N(C)C1=O)C(F)(F)F)C(=O)OCC=C

> <Canonical_QSARr>
CC(C)(OC(=O)C1C=C(C=CC=1Cl)N1C(=O)C=C(N(C)C1=O)C(F)(F)F)C(=O)OCC=C

> <InChI_Code_QSARr>
InChI=1S/C20H18ClF3N2O6/c1-5-8-31-17(29)19(2,3)32-16(28)12-9-11(6-7-13(12)21)26-15(27)10-14(20(22,23)24)25(4)18(26)30/h5-7,9-10H,1,8H2,2-4H3

> <InChI Key_QSARr>
JEDYYFXHPAIBGR-UHFFFAOYSA-N

> <Salt_Solvent>


> <Salt_Solvent_ID>
0

> <Number of connected components>
1

$$$$
Molecule_646
  Mrv2316 01072400032D          

 27 29  0  0  0  0            999 V2000
    2.6453    5.5902    0.0000 O   0  0  0  0  0  0  0  0  0  0  0  0
    1.9308    6.0027    0.0000 C   0  0  0  0  0  0  0  0  0  0  0  0
    1.2164    5.5902    0.0000 O   0  0  0  0  0  0  0  0  0  0  0  0
    1.9308    6.8277    0.0000 C   0  0  0  0  0  0  0  0  0  0  0  0
    2.6453    7.2402    0.0000 C   0  0  0  0  0  0  0  0  0  0  0  0
    2.6453    8.0652    0.0000 C   0  0  0  0  0  0  0  0  0  0  0  0
    1.9308    8.4777    0.0000 C   0  0  0  0  0  0  0  0  0  0  0  0
    1.2164    8.0652    0.0000 C   0  0  0  0  0  0  0  0  0  0  0  0
    1.2164    7.2402    0.0000 C   0  0  0  0  0  0  0  0  0  0  0  0
    0.5019    6.8277    0.0000 C   0  0  0  0  0  0  0  0  0  0  0  0
    0.5019    6.0027    0.0000 O   0  0  0  0  0  0  0  0  0  0  0  0
   -0.2126    7.2402    0.0000 N   0  0  0  0  0  0  0  0  0  0  0  0
   -0.9270    6.8277    0.0000 C   0  0  0  0  0  0  0  0  0  0  0  0
   -1.6415    7.2402    0.0000 C   0  0  0  0  0  0  0  0  0  0  0  0
   -2.3560    6.8277    0.0000 C   0  0  0  0  0  0  0  0  0  0  0  0
   -2.3560    6.0027    0.0000 C   0  0  0  0  0  0  0  0  0  0  0  0
   -3.0704    5.5902    0.0000 S   0  0  0  0  0  0  0  0  0  0  0  0
   -3.4829    6.3047    0.0000 O   0  0  0  0  0  0  0  0  0  0  0  0
   -2.6579    4.8757    0.0000 O   0  0  0  0  0  0  0  0  0  0  0  0
   -3.7849    5.1777    0.0000 N   0  0  0  0  0  0  0  0  0  0  0  0
   -3.7849    4.3527    0.0000 C   0  0  0  0  0  0  0  0  0  0  0  0
   -4.4524    3.8678    0.0000 N   0  0  0  0  0  0  0  0  0  0  0  0
   -4.1974    3.0832    0.0000 C   0  0  0  0  0  0  0  0  0  0  0  0
   -3.3724    3.0832    0.0000 C   0  0  0  0  0  0  0  0  0  0  0  0
   -3.1175    3.8678    0.0000 S   0  0  0  0  0  0  0  0  0  0  0  0
   -1.6415    5.5902    0.0000 C   0  0  0  0  0  0  0  0  0  0  0  0
   -0.9270    6.0027    0.0000 C   0  0  0  0  0  0  0  0  0  0  0  0
  1  2  1  0  0  0  0
  2  3  2  0  0  0  0
  2  4  1  0  0  0  0
  5  4  1  0  0  0  0
  6  5  2  0  0  0  0
  7  6  1  0  0  0  0
  8  7  2  0  0  0  0
  9  8  1  0  0  0  0
  4  9  2  0  0  0  0
  9 10  1  0  0  0  0
 10 11  2  0  0  0  0
 10 12  1  0  0  0  0
 12 13  1  0  0  0  0
 14 13  1  0  0  0  0
 15 14  2  0  0  0  0
 16 15  1  0  0  0  0
 16 17  1  0  0  0  0
 17 18  2  0  0  0  0
 17 19  2  0  0  0  0
 17 20  1  0  0  0  0
 20 21  1  0  0  0  0
 22 21  2  0  0  0  0
 23 22  1  0  0  0  0
 24 23  2  0  0  0  0
 25 24  1  0  0  0  0
 21 25  1  0  0  0  0
 26 16  2  0  0  0  0
 27 26  1  0  0  0  0
 13 27  2  0  0  0  0
M  END
> <RowID>
646

> <Original_SMILES>
OC(=O)C1C=CC=CC=1C(=O)NC1C=CC(=CC=1)S(=O)(=O)NC1=NC=CS1

> <Canonical_QSARr>
OC(=O)C1C=CC=CC=1C(=O)NC1C=CC(=CC=1)S(=O)(=O)NC1=NC=CS1

> <InChI_Code_QSARr>
InChI=1S/C17H13N3O5S2/c21-15(13-3-1-2-4-14(13)16(22)23)19-11-5-7-12(8-6-11)27(24,25)20-17-18-9-10-26-17/h1-10H,(H,18,20)(H,19,21)(H,22,23)

> <InChI Key_QSARr>
PBMSWVPMRUJMPE-UHFFFAOYSA-N

> <Salt_Solvent>


> <Salt_Solvent_ID>
0

> <Number of connected components>
1

$$$$
Molecule_647
  Mrv2316 01072400032D          

 11 10  0  0  0  0            999 V2000
    2.9980    2.5559    0.0000 C   0  0  0  0  0  0  0  0  0  0  0  0
    3.7125    2.1434    0.0000 C   0  0  0  0  0  0  0  0  0  0  0  0
    4.4270    2.5559    0.0000 C   0  0  0  0  0  0  0  0  0  0  0  0
    4.4270    3.3809    0.0000 O   0  0  0  0  0  0  0  0  0  0  0  0
    5.1414    2.1434    0.0000 N   0  0  0  0  0  0  0  0  0  0  0  0
    5.8559    2.5559    0.0000 C   0  0  0  0  0  0  0  0  0  0  0  0
    6.5704    2.1434    0.0000 N   0  0  0  0  0  0  0  0  0  0  0  0
    7.2849    2.5559    0.0000 C   0  0  0  0  0  0  0  0  0  0  0  0
    7.2849    3.3809    0.0000 O   0  0  0  0  0  0  0  0  0  0  0  0
    7.9993    2.1434    0.0000 C   0  0  0  0  0  0  0  0  0  0  0  0
    8.7138    2.5559    0.0000 C   0  0  0  0  0  0  0  0  0  0  0  0
  1  2  2  0  0  0  0
  2  3  1  0  0  0  0
  3  4  2  0  0  0  0
  3  5  1  0  0  0  0
  5  6  1  0  0  0  0
  6  7  1  0  0  0  0
  7  8  1  0  0  0  0
  8  9  2  0  0  0  0
  8 10  1  0  0  0  0
 10 11  2  0  0  0  0
M  END
> <RowID>
647

> <Original_SMILES>
C=CC(=O)NCNC(=O)C=C

> <Canonical_QSARr>
C=CC(=O)NCNC(=O)C=C

> <InChI_Code_QSARr>
InChI=1S/C7H10N2O2/c1-3-6(10)8-5-9-7(11)4-2/h3-4H,1-2,5H2,(H,8,10)(H,9,11)

> <InChI Key_QSARr>
ZIUHHBKFKCYYJD-UHFFFAOYSA-N

> <Salt_Solvent>


> <Salt_Solvent_ID>
0

> <Number of connected components>
1

$$$$
Molecule_648
  Mrv2316 01072400032D          

 21 22  0  0  0  0            999 V2000
    5.1214   -1.6003    0.0000 C   0  0  0  0  0  0  0  0  0  0  0  0
    5.1214   -0.7753    0.0000 C   0  0  0  0  0  0  0  0  0  0  0  0
    4.4070   -0.3628    0.0000 O   0  0  0  0  0  0  0  0  0  0  0  0
    4.4070    0.4622    0.0000 C   0  0  0  0  0  0  0  0  0  0  0  0
    5.1214    0.8747    0.0000 O   0  0  0  0  0  0  0  0  0  0  0  0
    3.6925    0.8747    0.0000 C   0  0  0  0  0  0  0  0  0  0  0  0
    3.6925    1.6997    0.0000 C   0  0  0  0  0  0  0  0  0  0  0  0
    2.9780    2.1122    0.0000 C   0  0  0  0  0  0  0  0  0  0  0  0
    2.9780    2.9372    0.0000 O   0  0  0  0  0  0  0  0  0  0  0  0
    2.2636    3.3497    0.0000 S   0  0  0  0  0  0  0  0  0  0  0  0
    1.5491    3.7622    0.0000 C   0  0  0  0  0  0  0  0  0  0  0  0
    2.6761    4.0642    0.0000 C   0  0  0  0  0  0  0  0  0  0  0  0
    1.8511    2.6352    0.0000 C   0  0  0  0  0  0  0  0  0  0  0  0
    2.2636    1.6997    0.0000 C   0  0  0  0  0  0  0  0  0  0  0  0
    1.4789    1.9546    0.0000 O   0  0  0  0  0  0  0  0  0  0  0  0
    0.9940    1.2872    0.0000 C   0  0  0  0  0  0  0  0  0  0  0  0
    0.3809    1.8392    0.0000 C   0  0  0  0  0  0  0  0  0  0  0  0
    0.3809    0.7352    0.0000 C   0  0  0  0  0  0  0  0  0  0  0  0
    1.4789    0.6198    0.0000 O   0  0  0  0  0  0  0  0  0  0  0  0
    2.2636    0.8747    0.0000 C   0  0  0  0  0  0  0  0  0  0  0  0
    2.9780    0.4622    0.0000 C   0  0  0  0  0  0  0  0  0  0  0  0
  1  2  1  0  0  0  0
  2  3  1  0  0  0  0
  3  4  1  0  0  0  0
  4  5  2  0  0  0  0
  4  6  1  0  0  0  0
  7  6  1  0  0  0  0
  8  7  1  0  0  0  0
  8  9  1  0  0  0  0
  9 10  1  0  0  0  0
 10 11  1  0  0  0  0
 10 12  2  0  0  0  0
 10 13  2  0  0  0  0
 14  8  1  0  0  0  0
 14 15  1  0  0  0  0
 15 16  1  0  0  0  0
 16 17  1  0  0  0  0
 16 18  1  0  0  0  0
 16 19  1  0  0  0  0
 19 20  1  0  0  0  0
 20 14  1  0  0  0  0
 21 20  1  0  0  0  0
  6 21  2  0  0  0  0
M  END
> <RowID>
648

> <Original_SMILES>
CCOC(=O)C1CC(OS(C)(=C)=C)C2OC(C)(C)OC2C=1

> <Canonical_QSARr>
CCOC(=O)C1CC(OS(C)(=C)=C)C2OC(C)(C)OC2C=1

> <InChI_Code_QSARr>
InChI=1S/C15H24O5S/c1-7-17-14(16)10-8-11-13(19-15(2,3)18-11)12(9-10)20-21(4,5)6/h8,11-13H,4-5,7,9H2,1-3,6H3

> <InChI Key_QSARr>
PRRFQXHAXJDWGV-UHFFFAOYSA-N

> <Salt_Solvent>


> <Salt_Solvent_ID>
0

> <Number of connected components>
1

$$$$
Molecule_649
  Mrv2316 01072400032D          

 10  9  0  0  0  0            999 V2000
    2.2836    2.1434    0.0000 C   0  0  0  0  0  0  0  0  0  0  0  0
    2.9980    2.5559    0.0000 O   0  0  0  0  0  0  0  0  0  0  0  0
    3.7125    2.1434    0.0000 C   0  0  0  0  0  0  0  0  0  0  0  0
    4.4270    2.5559    0.0000 C   0  0  0  0  0  0  0  0  0  0  0  0
    5.1414    2.1434    0.0000 O   0  0  0  0  0  0  0  0  0  0  0  0
    5.8559    2.5559    0.0000 C   0  0  0  0  0  0  0  0  0  0  0  0
    6.5704    2.1434    0.0000 C   0  0  0  0  0  0  0  0  0  0  0  0
    7.2849    2.5559    0.0000 O   0  0  0  0  0  0  0  0  0  0  0  0
    7.9993    2.1434    0.0000 C   0  0  0  0  0  0  0  0  0  0  0  0
    8.7138    2.5559    0.0000 C   0  0  0  0  0  0  0  0  0  0  0  0
  1  2  1  0  0  0  0
  2  3  1  0  0  0  0
  3  4  1  0  0  0  0
  4  5  1  0  0  0  0
  5  6  1  0  0  0  0
  6  7  1  0  0  0  0
  7  8  1  0  0  0  0
  8  9  1  0  0  0  0
  9 10  1  0  0  0  0
M  END
> <RowID>
649

> <Original_SMILES>
COCCOCCOCC

> <Canonical_QSARr>
COCCOCCOCC

> <InChI_Code_QSARr>
InChI=1S/C7H16O3/c1-3-9-6-7-10-5-4-8-2/h3-7H2,1-2H3

> <InChI Key_QSARr>
CNJRPYFBORAQAU-UHFFFAOYSA-N

> <Salt_Solvent>


> <Salt_Solvent_ID>
0

> <Number of connected components>
1

$$$$
Molecule_652
  Mrv2316 01072400032D          

 18 21  0  0  0  0            999 V2000
    2.6197    2.6125    0.0000 O   0  0  0  0  0  0  0  0  0  0  0  0
    2.6197    1.7875    0.0000 C   0  0  0  0  0  0  0  0  0  0  0  0
    3.3342    1.3750    0.0000 O   0  0  0  0  0  0  0  0  0  0  0  0
    4.0487    1.7875    0.0000 C   0  0  0  0  0  0  0  0  0  0  0  0
    4.7631    1.3750    0.0000 C   0  0  0  0  0  0  0  0  0  0  0  0
    4.7631    0.5500    0.0000 C   0  0  0  0  0  0  0  0  0  0  0  0
    5.4776    0.1375    0.0000 C   0  0  0  0  0  0  0  0  0  0  0  0
    6.1921   -0.2750    0.0000 O   0  0  0  0  0  0  0  0  0  0  0  0
    6.1921    0.5500    0.0000 C   0  0  0  0  0  0  0  0  0  0  0  0
    6.1921    1.3750    0.0000 C   0  0  0  0  0  0  0  0  0  0  0  0
    5.4776    1.7875    0.0000 C   0  0  0  0  0  0  0  0  0  0  0  0
    1.9053    1.3750    0.0000 C   0  0  0  0  0  0  0  0  0  0  0  0
    1.1908    1.7875    0.0000 C   0  0  0  0  0  0  0  0  0  0  0  0
    0.4763    1.3750    0.0000 C   0  0  0  0  0  0  0  0  0  0  0  0
   -0.2382    0.9625    0.0000 O   0  0  0  0  0  0  0  0  0  0  0  0
    0.4763    0.5500    0.0000 C   0  0  0  0  0  0  0  0  0  0  0  0
    1.1908    0.1375    0.0000 C   0  0  0  0  0  0  0  0  0  0  0  0
    1.9053    0.5500    0.0000 C   0  0  0  0  0  0  0  0  0  0  0  0
  1  2  2  0  0  0  0
  2  3  1  0  0  0  0
  3  4  1  0  0  0  0
  4  5  1  0  0  0  0
  6  5  1  0  0  0  0
  7  6  1  0  0  0  0
  7  8  1  0  0  0  0
  8  9  1  0  0  0  0
  9  7  1  0  0  0  0
 10  9  1  0  0  0  0
 11 10  1  0  0  0  0
  5 11  1  0  0  0  0
  2 12  1  0  0  0  0
 13 12  1  0  0  0  0
 14 13  1  0  0  0  0
 14 15  1  0  0  0  0
 15 16  1  0  0  0  0
 16 14  1  0  0  0  0
 17 16  1  0  0  0  0
 18 17  1  0  0  0  0
 12 18  1  0  0  0  0
M  END
> <RowID>
652

> <Original_SMILES>
O=C(OCC1CC2OC2CC1)C1CC2OC2CC1

> <Canonical_QSARr>
O=C(OCC1CC2OC2CC1)C1CC2OC2CC1

> <InChI_Code_QSARr>
InChI=1S/C14H20O4/c15-14(9-2-4-11-13(6-9)18-11)16-7-8-1-3-10-12(5-8)17-10/h8-13H,1-7H2

> <InChI Key_QSARr>
YXALYBMHAYZKAP-UHFFFAOYSA-N

> <Salt_Solvent>


> <Salt_Solvent_ID>
0

> <Number of connected components>
1

$$$$
Molecule_653
  Mrv2316 01072400032D          

 14 15  0  0  0  0            999 V2000
    1.7581    1.2104    0.0000 O   0  0  0  0  0  0  0  0  0  0  0  0
    0.9511    1.0389    0.0000 C   0  0  0  0  0  0  0  0  0  0  0  0
    0.6962    0.2543    0.0000 C   0  0  0  0  0  0  0  0  0  0  0  0
   -0.0884   -0.0006    0.0000 N   0  0  0  0  0  0  0  0  0  0  0  0
   -0.0884   -0.8256    0.0000 C   0  0  0  0  0  0  0  0  0  0  0  0
   -0.9134   -0.8256    0.0000 C   0  0  0  0  0  0  0  0  0  0  0  0
   -0.9134   -0.0006    0.0000 C   0  0  0  0  0  0  0  0  0  0  0  0
   -1.4968    0.5827    0.0000 O   0  0  0  0  0  0  0  0  0  0  0  0
    0.6962   -1.0806    0.0000 O   0  0  0  0  0  0  0  0  0  0  0  0
    1.1811   -0.4131    0.0000 C   0  0  0  0  0  0  0  0  0  0  0  0
    2.0061   -0.4131    0.0000 C   0  0  0  0  0  0  0  0  0  0  0  0
    2.4186    0.3013    0.0000 C   0  0  0  0  0  0  0  0  0  0  0  0
    3.2436    0.3013    0.0000 O   0  0  0  0  0  0  0  0  0  0  0  0
    0.3991    1.6520    0.0000 O   0  0  0  0  0  0  0  0  0  0  0  0
  1  2  1  0  0  0  0
  2  3  1  0  0  0  0
  4  3  1  0  0  0  0
  4  5  1  0  0  0  0
  5  6  1  0  0  0  0
  6  7  1  0  0  0  0
  7  4  1  0  0  0  0
  7  8  2  0  0  0  0
  9  5  1  0  0  0  0
 10  9  1  0  0  0  0
  3 10  1  0  0  0  0
 10 11  2  0  0  0  0
 11 12  1  4  0  0  0
 12 13  1  0  0  0  0
  2 14  2  0  0  0  0
M  END
> <RowID>
653

> <Original_SMILES>
CC(C)(C)N.OC(=O)C1C(=CCO)OC2CC(=O)N21

> <Canonical_QSARr>
OC(=O)C1C(=CCO)OC2CC(=O)N21

> <InChI_Code_QSARr>
InChI=1S/C8H9NO5/c10-2-1-4-7(8(12)13)9-5(11)3-6(9)14-4/h1,6-7,10H,2-3H2,(H,12,13)

> <InChI Key_QSARr>
HZZVJAQRINQKSD-UHFFFAOYSA-N

> <Salt_Solvent>
CC(N)(C)C

> <Salt_Solvent_ID>
1913

> <Number of connected components>
2

$$$$
Molecule_654
  Mrv2316 01072400032D          

 17 18  0  0  0  0            999 V2000
    2.3829   -5.5474    0.0000 C   0  0  0  0  0  0  0  0  0  0  0  0
    1.8980   -4.8800    0.0000 C   0  0  0  0  0  0  0  0  0  0  0  0
    2.1529   -4.0953    0.0000 C   0  0  0  0  0  0  0  0  0  0  0  0
    1.4855   -3.6104    0.0000 C   0  0  0  0  0  0  0  0  0  0  0  0
    1.4855   -2.7854    0.0000 O   0  0  0  0  0  0  0  0  0  0  0  0
    0.8180   -4.0953    0.0000 N   0  0  0  0  0  0  0  0  0  0  0  0
    0.0334   -3.8404    0.0000 C   0  0  0  0  0  0  0  0  0  0  0  0
   -0.1381   -3.0334    0.0000 C   0  0  0  0  0  0  0  0  0  0  0  0
   -0.9227   -2.7785    0.0000 C   0  0  0  0  0  0  0  0  0  0  0  0
   -1.0943   -1.9715    0.0000 S   0  0  0  0  0  0  0  0  0  0  0  0
   -1.2658   -1.1645    0.0000 O   0  0  0  0  0  0  0  0  0  0  0  0
   -0.2873   -1.8000    0.0000 O   0  0  0  0  0  0  0  0  0  0  0  0
   -1.9012   -2.1430    0.0000 O   0  0  0  0  0  0  0  0  0  0  0  0
   -1.5358   -3.3305    0.0000 C   0  0  0  0  0  0  0  0  0  0  0  0
   -1.3643   -4.1375    0.0000 C   0  0  0  0  0  0  0  0  0  0  0  0
   -0.5797   -4.3924    0.0000 C   0  0  0  0  0  0  0  0  0  0  0  0
    1.0730   -4.8800    0.0000 N   0  0  0  0  0  0  0  0  0  0  0  0
  1  2  1  0  0  0  0
  3  2  1  0  0  0  0
  4  3  1  0  0  0  0
  4  5  2  0  0  0  0
  6  4  1  0  0  0  0
  6  7  1  0  0  0  0
  8  7  2  0  0  0  0
  9  8  1  0  0  0  0
  9 10  1  0  0  0  0
 10 11  1  0  0  0  0
 10 12  2  0  0  0  0
 10 13  2  0  0  0  0
 14  9  2  0  0  0  0
 15 14  1  0  0  0  0
 16 15  2  0  0  0  0
  7 16  1  0  0  0  0
 17  6  1  0  0  0  0
  2 17  2  0  0  0  0
M  END
> <RowID>
654

> <Original_SMILES>
CC1CC(=O)N(N=1)C1=CC(=CC=C1)S(O)(=O)=O

> <Canonical_QSARr>
CC1CC(=O)N(N=1)C1=CC(=CC=C1)S(O)(=O)=O

> <InChI_Code_QSARr>
InChI=1S/C10H10N2O4S/c1-7-5-10(13)12(11-7)8-3-2-4-9(6-8)17(14,15)16/h2-4,6H,5H2,1H3,(H,14,15,16)

> <InChI Key_QSARr>
VEMGKBUHUTYHHA-UHFFFAOYSA-N

> <Salt_Solvent>


> <Salt_Solvent_ID>
0

> <Number of connected components>
1

$$$$
Molecule_655
  Mrv2316 01072400032D          

 10  9  0  0  0  0            999 V2000
    1.0461    1.4289    0.0000 C   0  0  0  0  0  0  0  0  0  0  0  0
    1.7605    1.8414    0.0000 O   0  0  0  0  0  0  0  0  0  0  0  0
    2.4750    1.4289    0.0000 C   0  0  0  0  0  0  0  0  0  0  0  0
    2.4750    0.6039    0.0000 C   0  0  0  0  0  0  0  0  0  0  0  0
    3.1895    1.8414    0.0000 C   0  0  0  0  0  0  0  0  0  0  0  0
    3.9039    1.4289    0.0000 C   0  0  0  0  0  0  0  0  0  0  0  0
    4.6184    1.8414    0.0000 O   0  0  0  0  0  0  0  0  0  0  0  0
    5.3329    1.4289    0.0000 C   0  0  0  0  0  0  0  0  0  0  0  0
    6.0474    1.8414    0.0000 C   0  0  0  0  0  0  0  0  0  0  0  0
    5.3329    0.6039    0.0000 O   0  0  0  0  0  0  0  0  0  0  0  0
  1  2  1  0  0  0  0
  2  3  1  0  0  0  0
  3  4  1  0  0  0  0
  3  5  1  0  0  0  0
  5  6  1  0  0  0  0
  6  7  1  0  0  0  0
  7  8  1  0  0  0  0
  8  9  1  0  0  0  0
  8 10  2  0  0  0  0
M  END
> <RowID>
655

> <Original_SMILES>
COC(C)CCOC(C)=O

> <Canonical_QSARr>
COC(C)CCOC(C)=O

> <InChI_Code_QSARr>
InChI=1S/C7H14O3/c1-6(9-3)4-5-10-7(2)8/h6H,4-5H2,1-3H3

> <InChI Key_QSARr>
QMYGFTJCQFEDST-UHFFFAOYSA-N

> <Salt_Solvent>


> <Salt_Solvent_ID>
0

> <Number of connected components>
1

$$$$
Molecule_656
  Mrv2316 01072400032D          

  7  6  0  0  0  0            999 V2000
    1.7605    1.8414    0.0000 O   0  0  0  0  0  0  0  0  0  0  0  0
    2.4750    1.4289    0.0000 C   0  0  0  0  0  0  0  0  0  0  0  0
    3.1895    1.8414    0.0000 C   0  0  0  0  0  0  0  0  0  0  0  0
    3.9039    1.4289    0.0000 N   0  0  0  0  0  0  0  0  0  0  0  0
    4.6184    1.8414    0.0000 C   0  0  0  0  0  0  0  0  0  0  0  0
    5.3329    1.4289    0.0000 C   0  0  0  0  0  0  0  0  0  0  0  0
    6.0474    1.8414    0.0000 O   0  0  0  0  0  0  0  0  0  0  0  0
  1  2  1  0  0  0  0
  2  3  1  0  0  0  0
  3  4  1  0  0  0  0
  4  5  1  0  0  0  0
  5  6  1  0  0  0  0
  6  7  1  0  0  0  0
M  END
> <RowID>
656

> <Original_SMILES>
CC1CO1.OCCNCCO

> <Canonical_QSARr>
OCCNCCO

> <InChI_Code_QSARr>
InChI=1S/C4H11NO2/c6-3-1-5-2-4-7/h5-7H,1-4H2

> <InChI Key_QSARr>
ZBCBWPMODOFKDW-UHFFFAOYSA-N

> <Salt_Solvent>
CC1OC1

> <Salt_Solvent_ID>
1770

> <Number of connected components>
2

$$$$
Molecule_657
  Mrv2316 01072400032D          

  9  9  0  0  0  0            999 V2000
   -0.2229    0.6294    0.0000 N   0  0  0  0  0  0  0  0  0  0  0  0
    0.0320   -0.1553    0.0000 C   0  0  0  0  0  0  0  0  0  0  0  0
   -0.4529   -0.8227    0.0000 O   0  0  0  0  0  0  0  0  0  0  0  0
    0.8570   -0.1553    0.0000 N   0  0  0  0  0  0  0  0  0  0  0  0
    1.1120    0.6294    0.0000 C   0  0  0  0  0  0  0  0  0  0  0  0
    1.8966    0.8843    0.0000 O   0  0  0  0  0  0  0  0  0  0  0  0
    0.4445    1.1143    0.0000 C   0  0  0  0  0  0  0  0  0  0  0  0
    0.8495    1.8330    0.0000 C   0  0  0  0  0  0  0  0  0  0  0  0
    0.0395    1.8330    0.0000 C   0  0  0  0  0  0  0  0  0  0  0  0
  2  1  1  0  0  0  0
  2  3  2  0  0  0  0
  4  2  1  0  0  0  0
  5  4  1  0  0  0  0
  5  6  2  0  0  0  0
  7  5  1  0  0  0  0
  1  7  1  0  0  0  0
  7  8  1  0  0  0  0
  7  9  1  0  0  0  0
M  END
> <RowID>
657

> <Original_SMILES>
[Na+].CC1(C)[N-]C(=O)NC1=O

> <Canonical_QSARr>
CC1(C)NC(=O)NC1=O

> <InChI_Code_QSARr>
InChI=1S/C5H8N2O2/c1-5(2)3(8)6-4(9)7-5/h1-2H3,(H2,6,7,8,9)

> <InChI Key_QSARr>
YIROYDNZEPTFOL-UHFFFAOYSA-N

> <Salt_Solvent>
[Na+]

> <Salt_Solvent_ID>
110

> <Number of connected components>
2

$$$$
Molecule_658
  Mrv2316 01072400032D          

 14 13  0  0  0  0            999 V2000
    5.4730    3.9849    0.0000 C   0  0  0  0  0  0  0  0  0  0  0  0
    6.1875    3.5724    0.0000 C   0  0  0  0  0  0  0  0  0  0  0  0
    6.9020    3.9849    0.0000 C   0  0  0  0  0  0  0  0  0  0  0  0
    7.6164    3.5724    0.0000 C   0  0  0  0  0  0  0  0  0  0  0  0
    8.3309    3.9849    0.0000 C   0  0  0  0  0  0  0  0  0  0  0  0
    9.0454    3.5724    0.0000 C   0  0  0  0  0  0  0  0  0  0  0  0
    9.7598    3.9849    0.0000 C   0  0  0  0  0  0  0  0  0  0  0  0
   10.4743    3.5724    0.0000 O   0  0  0  0  0  0  0  0  0  0  0  0
   11.1888    3.9849    0.0000 C   0  0  0  0  0  0  0  0  0  0  0  0
   11.9033    3.5724    0.0000 C   0  0  0  0  0  0  0  0  0  0  0  0
   11.9033    2.7474    0.0000 C   0  0  0  0  0  0  0  0  0  0  0  0
   12.6177    3.9849    0.0000 C   0  0  0  0  0  0  0  0  0  0  0  0
   13.3322    3.5724    0.0000 C   0  0  0  0  0  0  0  0  0  0  0  0
   14.0467    3.9849    0.0000 O   0  0  0  0  0  0  0  0  0  0  0  0
  1  2  1  0  0  0  0
  2  3  1  0  0  0  0
  3  4  1  0  0  0  0
  4  5  1  0  0  0  0
  5  6  1  0  0  0  0
  6  7  1  0  0  0  0
  7  8  1  0  0  0  0
  8  9  1  0  0  0  0
  9 10  1  0  0  0  0
 10 11  1  0  0  0  0
 10 12  1  0  0  0  0
 12 13  1  0  0  0  0
 13 14  2  0  0  0  0
M  END
> <RowID>
658

> <Original_SMILES>
CCCCCCCOCC(C)CC=O

> <Canonical_QSARr>
CCCCCCCOCC(C)CC=O

> <InChI_Code_QSARr>
InChI=1S/C12H24O2/c1-3-4-5-6-7-10-14-11-12(2)8-9-13/h9,12H,3-8,10-11H2,1-2H3

> <InChI Key_QSARr>
SUMGKDNQUWFTJW-UHFFFAOYSA-N

> <Salt_Solvent>


> <Salt_Solvent_ID>
0

> <Number of connected components>
1

$$$$
Molecule_659
  Mrv2316 01072400032D          

 12 13  0  0  0  0            999 V2000
    1.1809   -3.5477    0.0000 C   0  0  0  0  0  0  0  0  0  0  0  0
    1.4358   -2.7631    0.0000 O   0  0  0  0  0  0  0  0  0  0  0  0
    0.8838   -2.1500    0.0000 N   0  0  0  0  0  0  0  0  0  0  0  0
    1.1387   -1.3654    0.0000 C   0  0  0  0  0  0  0  0  0  0  0  0
    0.6538   -0.6979    0.0000 C   0  0  0  0  0  0  0  0  0  0  0  0
    1.1387   -0.0305    0.0000 O   0  0  0  0  0  0  0  0  0  0  0  0
    1.9233   -0.2854    0.0000 C   0  0  0  0  0  0  0  0  0  0  0  0
    2.6378    0.1271    0.0000 C   0  0  0  0  0  0  0  0  0  0  0  0
    3.3523   -0.2854    0.0000 C   0  0  0  0  0  0  0  0  0  0  0  0
    3.3523   -1.1104    0.0000 C   0  0  0  0  0  0  0  0  0  0  0  0
    2.6378   -1.5229    0.0000 C   0  0  0  0  0  0  0  0  0  0  0  0
    1.9233   -1.1104    0.0000 C   0  0  0  0  0  0  0  0  0  0  0  0
  1  2  1  0  0  0  0
  3  2  1  4  0  0  0
  3  4  2  0  0  0  0
  5  4  1  0  0  0  0
  6  5  1  0  0  0  0
  7  6  1  0  0  0  0
  7  8  1  0  0  0  0
  8  9  2  0  0  0  0
  9 10  1  0  0  0  0
 10 11  2  0  0  0  0
 11 12  1  0  0  0  0
  4 12  1  0  0  0  0
 12  7  2  0  0  0  0
M  END
> <RowID>
659

> <Original_SMILES>
CON=C1COC2C=CC=CC1=2

> <Canonical_QSARr>
CON=C1COC2C=CC=CC1=2

> <InChI_Code_QSARr>
InChI=1S/C9H9NO2/c1-11-10-8-6-12-9-5-3-2-4-7(8)9/h2-5H,6H2,1H3

> <InChI Key_QSARr>
RKNNOQIDQDTNSB-UHFFFAOYSA-N

> <Salt_Solvent>


> <Salt_Solvent_ID>
0

> <Number of connected components>
1

$$$$
Molecule_660
  Mrv2316 01072400032D          

 14 14  0  0  0  0            999 V2000
    0.0000   -0.8250    0.0000 C   0  0  0  0  0  0  0  0  0  0  0  0
    0.7145   -0.4125    0.0000 C   0  0  0  0  0  0  0  0  0  0  0  0
    1.4289   -0.8250    0.0000 C   0  0  0  0  0  0  0  0  0  0  0  0
    0.7145    0.4125    0.0000 C   0  0  0  0  0  0  0  0  0  0  0  0
    1.4289    0.8250    0.0000 C   0  0  0  0  0  0  0  0  0  0  0  0
    1.4289    1.6500    0.0000 C   0  0  0  0  0  0  0  0  0  0  0  0
    0.7145    2.0625    0.0000 C   0  0  0  0  0  0  0  0  0  0  0  0
    0.7145    2.8875    0.0000 C   0  0  0  0  0  0  0  0  0  0  0  0
    0.0000    1.6500    0.0000 C   0  0  0  0  0  0  0  0  0  0  0  0
    0.0000    0.8250    0.0000 C   0  0  0  0  0  0  0  0  0  0  0  0
   -0.7145    0.4125    0.0000 O   0  0  0  0  0  0  0  0  0  0  0  0
   -1.4289    0.8250    0.0000 C   0  0  0  0  0  0  0  0  0  0  0  0
   -1.4289    1.6500    0.0000 C   0  0  0  0  0  0  0  0  0  0  0  0
   -2.1434    0.4125    0.0000 O   0  0  0  0  0  0  0  0  0  0  0  0
  1  2  1  0  0  0  0
  2  3  1  0  0  0  0
  2  4  1  0  0  0  0
  5  4  1  0  0  0  0
  6  5  1  0  0  0  0
  7  6  1  0  0  0  0
  7  8  1  0  0  0  0
  9  7  1  0  0  0  0
 10  9  1  0  0  0  0
  4 10  1  0  0  0  0
 10 11  1  0  0  0  0
 11 12  1  0  0  0  0
 12 13  1  0  0  0  0
 12 14  2  0  0  0  0
M  END
> <RowID>
660

> <Original_SMILES>
CC(C)C1CCC(C)CC1OC(C)=O

> <Canonical_QSARr>
CC(C)C1CCC(C)CC1OC(C)=O

> <InChI_Code_QSARr>
InChI=1S/C12H22O2/c1-8(2)11-6-5-9(3)7-12(11)14-10(4)13/h8-9,11-12H,5-7H2,1-4H3

> <InChI Key_QSARr>
XHXUANMFYXWVNG-UHFFFAOYSA-N

> <Salt_Solvent>


> <Salt_Solvent_ID>
0

> <Number of connected components>
1

$$$$
Molecule_661
  Mrv2316 01072400032D          

 21 21  0  0  0  0            999 V2000
    2.1434   -7.4839    0.0000 C   0  0  0  0  0  0  0  0  0  0  0  0
    2.8579   -7.0714    0.0000 C   0  0  0  0  0  0  0  0  0  0  0  0
    3.5724   -7.4839    0.0000 C   0  0  0  0  0  0  0  0  0  0  0  0
    4.2868   -7.0714    0.0000 C   0  0  0  0  0  0  0  0  0  0  0  0
    5.0013   -7.4839    0.0000 C   0  0  0  0  0  0  0  0  0  0  0  0
    5.7158   -7.0714    0.0000 C   0  0  0  0  0  0  0  0  0  0  0  0
    6.4302   -7.4839    0.0000 C   0  0  0  0  0  0  0  0  0  0  0  0
    7.1447   -7.0714    0.0000 C   0  0  0  0  0  0  0  0  0  0  0  0
    7.8592   -7.4839    0.0000 C   0  0  0  0  0  0  0  0  0  0  0  0
    8.5737   -7.0714    0.0000 C   0  0  0  0  0  0  0  0  0  0  0  0
    8.5737   -6.2464    0.0000 O   0  0  0  0  0  0  0  0  0  0  0  0
    9.2881   -7.4839    0.0000 O   0  0  0  0  0  0  0  0  0  0  0  0
   10.0026   -7.0714    0.0000 C   0  0  0  0  0  0  0  0  0  0  0  0
   10.7171   -7.4839    0.0000 C   0  0  0  0  0  0  0  0  0  0  0  0
   11.4315   -7.0714    0.0000 C   0  0  0  0  0  0  0  0  0  0  0  0
   11.4315   -6.2464    0.0000 C   0  0  0  0  0  0  0  0  0  0  0  0
   12.1460   -5.8339    0.0000 C   0  0  0  0  0  0  0  0  0  0  0  0
   12.1460   -5.0089    0.0000 O   0  0  0  0  0  0  0  0  0  0  0  0
   12.8605   -6.2464    0.0000 O   0  0  0  0  0  0  0  0  0  0  0  0
   10.7171   -5.8339    0.0000 C   0  0  0  0  0  0  0  0  0  0  0  0
   10.0026   -6.2464    0.0000 C   0  0  0  0  0  0  0  0  0  0  0  0
  1  2  1  0  0  0  0
  2  3  1  0  0  0  0
  3  4  1  0  0  0  0
  4  5  1  0  0  0  0
  5  6  1  0  0  0  0
  6  7  1  0  0  0  0
  7  8  1  0  0  0  0
  8  9  1  0  0  0  0
  9 10  1  0  0  0  0
 10 11  2  0  0  0  0
 10 12  1  0  0  0  0
 12 13  1  0  0  0  0
 14 13  1  0  0  0  0
 15 14  2  0  0  0  0
 16 15  1  0  0  0  0
 16 17  1  0  0  0  0
 17 18  1  0  0  0  0
 17 19  2  0  0  0  0
 20 16  2  0  0  0  0
 21 20  1  0  0  0  0
 13 21  2  0  0  0  0
M  END
> <RowID>
661

> <Original_SMILES>
CCCCCCCCCC(=O)OC1C=CC(=CC=1)C(O)=O

> <Canonical_QSARr>
CCCCCCCCCC(=O)OC1C=CC(=CC=1)C(O)=O

> <InChI_Code_QSARr>
InChI=1S/C17H24O4/c1-2-3-4-5-6-7-8-9-16(18)21-15-12-10-14(11-13-15)17(19)20/h10-13H,2-9H2,1H3,(H,19,20)

> <InChI Key_QSARr>
QTMHHQFADWIZCP-UHFFFAOYSA-N

> <Salt_Solvent>


> <Salt_Solvent_ID>
0

> <Number of connected components>
1

$$$$
Molecule_662
  Mrv2316 01072400032D          

 13 13  0  0  0  0            999 V2000
    0.6595   -0.5077    0.0000 C   0  0  0  0  0  0  0  0  0  0  0  0
    1.3740   -0.0952    0.0000 C   0  0  0  0  0  0  0  0  0  0  0  0
    2.0885   -0.5077    0.0000 C   0  0  0  0  0  0  0  0  0  0  0  0
    2.8029   -0.0952    0.0000 C   0  0  0  0  0  0  0  0  0  0  0  0
    2.8029    0.7298    0.0000 C   0  0  0  0  0  0  0  0  0  0  0  0
    2.0885    1.1423    0.0000 C   0  0  0  0  0  0  0  0  0  0  0  0
    2.6188    1.7743    0.0000 C   0  0  0  0  0  0  0  0  0  0  0  0
    1.5582    1.7743    0.0000 C   0  0  0  0  0  0  0  0  0  0  0  0
    1.3740    0.7298    0.0000 C   0  0  0  0  0  0  0  0  0  0  0  0
    0.6595    1.1423    0.0000 C   0  0  0  0  0  0  0  0  0  0  0  0
   -0.0550    0.7298    0.0000 O   0  0  0  0  0  0  0  0  0  0  0  0
    0.6595    1.9673    0.0000 O   0  0  0  0  0  0  0  0  0  0  0  0
   -0.0550    2.3798    0.0000 C   0  0  0  0  0  0  0  0  0  0  0  0
  1  2  1  0  0  0  0
  3  2  2  0  0  0  0
  4  3  1  0  0  0  0
  5  4  1  0  0  0  0
  6  5  1  0  0  0  0
  6  7  1  0  0  0  0
  6  8  1  0  0  0  0
  9  6  1  0  0  0  0
  2  9  1  0  0  0  0
  9 10  1  0  0  0  0
 10 11  2  0  0  0  0
 10 12  1  0  0  0  0
 12 13  1  0  0  0  0
M  END
> <RowID>
662

> <Original_SMILES>
CC1=CCCC(C)(C)C1C(=O)OC

> <Canonical_QSARr>
CC1=CCCC(C)(C)C1C(=O)OC

> <InChI_Code_QSARr>
InChI=1S/C11H18O2/c1-8-6-5-7-11(2,3)9(8)10(12)13-4/h6,9H,5,7H2,1-4H3

> <InChI Key_QSARr>
NVAGRWXDIIKUBU-UHFFFAOYSA-N

> <Salt_Solvent>


> <Salt_Solvent_ID>
0

> <Number of connected components>
1

$$$$
Molecule_663
  Mrv2316 01072400032D          

 24 28  0  0  0  0            999 V2000
    2.1434    2.0625    0.0000 O   0  0  0  0  0  0  0  0  0  0  0  0
    2.1434    1.2375    0.0000 C   0  0  0  0  0  0  0  0  0  0  0  0
    2.8579    0.8250    0.0000 C   0  0  0  0  0  0  0  0  0  0  0  0
    3.5724    1.2375    0.0000 C   0  0  0  0  0  0  0  0  0  0  0  0
    4.2868    0.8250    0.0000 C   0  0  0  0  0  0  0  0  0  0  0  0
    5.0013    1.2375    0.0000 N   0  0  0  0  0  0  0  0  0  0  0  0
    5.7158    0.8250    0.0000 C   0  0  0  0  0  0  0  0  0  0  0  0
    6.4302    1.2375    0.0000 C   0  0  0  0  0  0  0  0  0  0  0  0
    7.1447    0.8250    0.0000 C   0  0  0  0  0  0  0  0  0  0  0  0
    7.1447   -0.0000    0.0000 C   0  0  0  0  0  0  0  0  0  0  0  0
    6.4302   -0.4125    0.0000 C   0  0  0  0  0  0  0  0  0  0  0  0
    5.7158    0.0000    0.0000 C   0  0  0  0  0  0  0  0  0  0  0  0
    5.0013   -0.4125    0.0000 C   0  0  0  0  0  0  0  0  0  0  0  0
    5.0013   -1.2375    0.0000 O   0  0  0  0  0  0  0  0  0  0  0  0
    4.2868    0.0000    0.0000 C   0  0  0  0  0  0  0  0  0  0  0  0
    3.5724   -0.4125    0.0000 C   0  0  0  0  0  0  0  0  0  0  0  0
    2.8579    0.0000    0.0000 C   0  0  0  0  0  0  0  0  0  0  0  0
    2.1434   -0.4125    0.0000 N   0  0  0  0  0  0  0  0  0  0  0  0
    1.4289   -0.0000    0.0000 C   0  0  0  0  0  0  0  0  0  0  0  0
    0.7145   -0.4125    0.0000 C   0  0  0  0  0  0  0  0  0  0  0  0
   -0.0000   -0.0000    0.0000 C   0  0  0  0  0  0  0  0  0  0  0  0
   -0.0000    0.8250    0.0000 C   0  0  0  0  0  0  0  0  0  0  0  0
    0.7145    1.2375    0.0000 C   0  0  0  0  0  0  0  0  0  0  0  0
    1.4289    0.8250    0.0000 C   0  0  0  0  0  0  0  0  0  0  0  0
  1  2  2  0  0  0  0
  3  2  1  0  0  0  0
  3  4  1  0  0  0  0
  4  5  2  0  0  0  0
  6  5  1  0  0  0  0
  7  6  1  0  0  0  0
  7  8  1  0  0  0  0
  8  9  2  0  0  0  0
  9 10  1  0  0  0  0
 10 11  2  0  0  0  0
 11 12  1  0  0  0  0
 12  7  2  0  0  0  0
 13 12  1  0  0  0  0
 13 14  2  0  0  0  0
 15 13  1  0  0  0  0
  5 15  1  0  0  0  0
 15 16  2  0  0  0  0
 16 17  1  0  0  0  0
 17  3  2  0  0  0  0
 18 17  1  0  0  0  0
 19 18  1  0  0  0  0
 19 20  1  0  0  0  0
 20 21  2  0  0  0  0
 21 22  1  0  0  0  0
 22 23  2  0  0  0  0
 23 24  1  0  0  0  0
  2 24  1  0  0  0  0
 24 19  2  0  0  0  0
M  END
> <RowID>
663

> <Original_SMILES>
O=C1C2C=C3NC4C=CC=CC=4C(=O)C3=CC=2NC2C=CC=CC1=2

> <Canonical_QSARr>
O=C1C2C=C3NC4C=CC=CC=4C(=O)C3=CC=2NC2C=CC=CC1=2

> <InChI_Code_QSARr>
InChI=1S/C20H12N2O2/c23-19-11-5-1-3-7-15(11)21-17-10-14-18(9-13(17)19)22-16-8-4-2-6-12(16)20(14)24/h1-10H,(H,21,23)(H,22,24)

> <InChI Key_QSARr>
NRCMAYZCPIVABH-UHFFFAOYSA-N

> <Salt_Solvent>


> <Salt_Solvent_ID>
0

> <Number of connected components>
1

$$$$
Molecule_664
  Mrv2316 01072400032D          

 26 28  0  0  0  0            999 V2000
    0.2775   -6.4301    0.0000 C   0  0  0  0  0  0  0  0  0  0  0  0
    0.9920   -6.0176    0.0000 O   0  0  0  0  0  0  0  0  0  0  0  0
    1.7065   -6.4301    0.0000 C   0  0  0  0  0  0  0  0  0  0  0  0
    1.7065   -7.2551    0.0000 O   0  0  0  0  0  0  0  0  0  0  0  0
    2.4209   -6.0176    0.0000 C   0  0  0  0  0  0  0  0  0  0  0  0
    3.1354   -6.4301    0.0000 C   0  0  0  0  0  0  0  0  0  0  0  0
    3.8499   -6.0176    0.0000 C   0  0  0  0  0  0  0  0  0  0  0  0
    4.5643   -6.4301    0.0000 C   0  0  0  0  0  0  0  0  0  0  0  0
    5.2788   -6.0176    0.0000 C   0  0  0  0  0  0  0  0  0  0  0  0
    5.9933   -6.4301    0.0000 N   0  0  0  0  0  0  0  0  0  0  0  0
    6.7470   -6.0945    0.0000 N   0  0  0  0  0  0  0  0  0  0  0  0
    7.2990   -6.7076    0.0000 C   0  0  0  0  0  0  0  0  0  0  0  0
    8.1240   -6.7076    0.0000 C   0  0  0  0  0  0  0  0  0  0  0  0
    8.5365   -7.4221    0.0000 C   0  0  0  0  0  0  0  0  0  0  0  0
    8.1240   -8.1365    0.0000 C   0  0  0  0  0  0  0  0  0  0  0  0
    7.2990   -8.1365    0.0000 C   0  0  0  0  0  0  0  0  0  0  0  0
    6.8865   -7.4221    0.0000 C   0  0  0  0  0  0  0  0  0  0  0  0
    6.0795   -7.2505    0.0000 N   0  0  0  0  0  0  0  0  0  0  0  0
    5.2788   -5.1926    0.0000 C   0  0  0  0  0  0  0  0  0  0  0  0
    5.9933   -4.7801    0.0000 O   0  0  0  0  0  0  0  0  0  0  0  0
    4.5643   -4.7801    0.0000 C   0  0  0  0  0  0  0  0  0  0  0  0
    4.5643   -3.9551    0.0000 C   0  0  0  0  0  0  0  0  0  0  0  0
    4.5643   -3.1301    0.0000 C   0  0  0  0  0  0  0  0  0  0  0  0
    3.7393   -3.9551    0.0000 C   0  0  0  0  0  0  0  0  0  0  0  0
    5.3893   -3.9551    0.0000 C   0  0  0  0  0  0  0  0  0  0  0  0
    3.8499   -5.1926    0.0000 C   0  0  0  0  0  0  0  0  0  0  0  0
  1  2  1  0  0  0  0
  2  3  1  0  0  0  0
  3  4  2  0  0  0  0
  3  5  1  0  0  0  0
  5  6  1  0  0  0  0
  6  7  1  0  0  0  0
  8  7  1  0  0  0  0
  9  8  2  0  0  0  0
  9 10  1  0  0  0  0
 11 10  1  0  0  0  0
 12 11  2  0  0  0  0
 12 13  1  0  0  0  0
 13 14  2  0  0  0  0
 14 15  1  0  0  0  0
 15 16  2  0  0  0  0
 16 17  1  0  0  0  0
 17 12  1  0  0  0  0
 18 17  2  0  0  0  0
 10 18  1  0  0  0  0
 19  9  1  0  0  0  0
 19 20  1  0  0  0  0
 21 19  2  0  0  0  0
 21 22  1  0  0  0  0
 22 23  1  0  0  0  0
 22 24  1  0  0  0  0
 22 25  1  0  0  0  0
 26 21  1  0  0  0  0
  7 26  2  0  0  0  0
M  END
> <RowID>
664

> <Original_SMILES>
COC(=O)CCC1C=C(C(O)=C(C=1)C(C)(C)C)N1N=C2C=CC=CC2=N1

> <Canonical_QSARr>
COC(=O)CCC1C=C(C(O)=C(C=1)C(C)(C)C)N1N=C2C=CC=CC2=N1

> <InChI_Code_QSARr>
InChI=1S/C20H23N3O3/c1-20(2,3)14-11-13(9-10-18(24)26-4)12-17(19(14)25)23-21-15-7-5-6-8-16(15)22-23/h5-8,11-12,25H,9-10H2,1-4H3

> <InChI Key_QSARr>
UJRDRFZCRQNLJM-UHFFFAOYSA-N

> <Salt_Solvent>


> <Salt_Solvent_ID>
0

> <Number of connected components>
1

$$$$
Molecule_665
  Mrv2316 01072400032D          

 43 49  0  0  0  0            999 V2000
   -6.2766    8.8937    0.0000 C   0  0  0  0  0  0  0  0  0  0  0  0
   -5.5944    9.3576    0.0000 C   0  0  0  0  0  0  0  0  0  0  0  0
   -4.8306    9.6694    0.0000 C   0  0  0  0  0  0  0  0  0  0  0  0
   -4.1294    9.2348    0.0000 C   0  0  0  0  0  0  0  0  0  0  0  0
   -4.1551    8.4102    0.0000 C   0  0  0  0  0  0  0  0  0  0  0  0
   -3.4539    7.9756    0.0000 C   0  0  0  0  0  0  0  0  0  0  0  0
   -3.4796    7.1510    0.0000 C   0  0  0  0  0  0  0  0  0  0  0  0
   -4.2067    6.7610    0.0000 Cl  0  0  0  0  0  0  0  0  0  0  0  0
   -2.7784    6.7164    0.0000 C   0  0  0  0  0  0  0  0  0  0  0  0
   -2.8042    5.8918    0.0000 C   0  0  0  0  0  0  0  0  0  0  0  0
   -2.1029    5.4572    0.0000 C   0  0  0  0  0  0  0  0  0  0  0  0
   -2.1287    4.6326    0.0000 C   0  0  0  0  0  0  0  0  0  0  0  0
   -2.8109    4.1687    0.0000 C   0  0  0  0  0  0  0  0  0  0  0  0
   -3.2009    4.8958    0.0000 C   0  0  0  0  0  0  0  0  0  0  0  0
   -3.5747    3.8569    0.0000 C   0  0  0  0  0  0  0  0  0  0  0  0
   -2.5806    3.3765    0.0000 C   0  0  0  0  0  0  0  0  0  0  0  0
   -1.7560    3.3508    0.0000 C   0  0  0  0  0  0  0  0  0  0  0  0
   -1.3660    2.6238    0.0000 C   0  0  0  0  0  0  0  0  0  0  0  0
   -1.8007    1.9225    0.0000 C   0  0  0  0  0  0  0  0  0  0  0  0
   -2.6253    1.9483    0.0000 C   0  0  0  0  0  0  0  0  0  0  0  0
   -3.0152    2.6753    0.0000 C   0  0  0  0  0  0  0  0  0  0  0  0
   -3.8398    2.7011    0.0000 C   0  0  0  0  0  0  0  0  0  0  0  0
   -4.2745    1.9998    0.0000 C   0  0  0  0  0  0  0  0  0  0  0  0
   -3.8845    1.2728    0.0000 C   0  0  0  0  0  0  0  0  0  0  0  0
   -3.0599    1.2471    0.0000 C   0  0  0  0  0  0  0  0  0  0  0  0
   -1.4767    4.1271    0.0000 N   0  0  0  0  0  0  0  0  0  0  0  0
   -0.6845    4.3574    0.0000 C   0  0  0  0  0  0  0  0  0  0  0  0
   -2.0514    7.1064    0.0000 C   0  0  0  0  0  0  0  0  0  0  0  0
   -2.0256    7.9310    0.0000 C   0  0  0  0  0  0  0  0  0  0  0  0
   -2.7269    8.3656    0.0000 C   0  0  0  0  0  0  0  0  0  0  0  0
   -4.8912   10.4922    0.0000 N   0  3  0  0  0  0  0  0  0  0  0  0
   -4.2611   11.0248    0.0000 C   0  0  0  0  0  0  0  0  0  0  0  0
   -5.6924   10.6888    0.0000 C   0  0  0  0  0  0  0  0  0  0  0  0
   -6.1270    9.9876    0.0000 C   0  0  0  0  0  0  0  0  0  0  0  0
   -6.9516   10.0134    0.0000 C   0  0  0  0  0  0  0  0  0  0  0  0
   -7.3416   10.7404    0.0000 C   0  0  0  0  0  0  0  0  0  0  0  0
   -6.9070   11.4416    0.0000 C   0  0  0  0  0  0  0  0  0  0  0  0
   -6.0824   11.4158    0.0000 C   0  0  0  0  0  0  0  0  0  0  0  0
   -8.1662   10.7661    0.0000 C   0  0  0  0  0  0  0  0  0  0  0  0
   -8.6008   10.0649    0.0000 C   0  0  0  0  0  0  0  0  0  0  0  0
   -8.2108    9.3379    0.0000 C   0  0  0  0  0  0  0  0  0  0  0  0
   -7.3862    9.3121    0.0000 C   0  0  0  0  0  0  0  0  0  0  0  0
   -5.2044    8.6306    0.0000 C   0  0  0  0  0  0  0  0  0  0  0  0
  1  2  1  0  0  0  0
  3  2  1  0  0  0  0
  4  3  1  4  0  0  0
  4  5  2  0  0  0  0
  5  6  1  0  0  0  0
  7  6  2  0  0  0  0
  7  8  1  0  0  0  0
  9  7  1  0  0  0  0
  9 10  2  0  0  0  0
 10 11  1  4  0  0  0
 11 12  2  0  0  0  0
 12 13  1  4  0  0  0
 13 14  1  0  0  0  0
 13 15  1  0  0  0  0
 16 13  1  0  0  0  0
 16 17  2  0  0  0  0
 17 18  1  0  0  0  0
 18 19  2  0  0  0  0
 19 20  1  0  0  0  0
 21 20  1  0  0  0  0
 21 16  1  0  0  0  0
 22 21  2  0  0  0  0
 23 22  1  0  0  0  0
 24 23  2  0  0  0  0
 25 24  1  0  0  0  0
 20 25  2  0  0  0  0
 26 17  1  0  0  0  0
 12 26  1  0  0  0  0
 26 27  1  0  0  0  0
 28  9  1  0  0  0  0
 29 28  1  0  0  0  0
 30 29  1  0  0  0  0
  6 30  1  0  0  0  0
 31  3  2  0  0  0  0
 31 32  1  0  0  0  0
 33 31  1  0  0  0  0
 33 34  2  0  0  0  0
  2 34  1  0  0  0  0
 34 35  1  0  0  0  0
 36 35  1  0  0  0  0
 36 37  1  0  0  0  0
 37 38  2  0  0  0  0
 38 33  1  0  0  0  0
 39 36  2  0  0  0  0
 40 39  1  0  0  0  0
 41 40  2  0  0  0  0
 42 41  1  0  0  0  0
 35 42  2  0  0  0  0
  2 43  1  0  0  0  0
M  CHG  1  31   1
M  END
> <RowID>
665

> <Original_SMILES>
CC1C=CC(=CC=1)S([O-])(=O)=O.CC1(C)C2C3=CC=CC=C3C=CC=2[N+](C)=C1C=CC1CCCC(=CC=C2N(C)C3C=CC4=CC=CC=C4C=3C2(C)C)C=1Cl

> <Canonical_QSARr>
CC1(C)C2C3=CC=CC=C3C=CC=2[N+](C)=C1C=CC1CCCC(=CC=C2N(C)C3C=CC4=CC=CC=C4C=3C2(C)C)C=1Cl

> <InChI_Code_QSARr>
InChI=1S/C40H40ClN2/c1-39(2)34(42(5)32-22-18-26-12-7-9-16-30(26)36(32)39)24-20-28-14-11-15-29(38(28)41)21-25-35-40(3,4)37-31-17-10-8-13-27(31)19-23-33(37)43(35)6/h7-10,12-13,16-25H,11,14-15H2,1-6H3/q+1

> <InChI Key_QSARr>
OJIWKZGAIJYISI-UHFFFAOYSA-N

> <Salt_Solvent>
CC1=CC=C(S(=O)(=O)[O-])C=C1

> <Salt_Solvent_ID>
3533

> <Number of connected components>
2

$$$$
Molecule_666
  Mrv2316 01072400032D          

 44 52  0  0  0  0            999 V2000
    2.6128   -0.4129    0.0000 N   0  0  0  0  0  0  0  0  0  0  0  0
    1.9658    0.0990    0.0000 C   0  0  0  0  0  0  0  0  0  0  0  0
    1.2616   -0.3308    0.0000 N   0  0  0  0  0  0  0  0  0  0  0  0
    0.7639   -1.2806    0.0000 C   0  0  0  0  0  0  0  0  0  0  0  0
   -0.0305   -1.5031    0.0000 C   0  0  0  0  0  0  0  0  0  0  0  0
   -0.0643   -2.3274    0.0000 C   0  0  0  0  0  0  0  0  0  0  0  0
   -0.7951   -2.7103    0.0000 C   0  0  0  0  0  0  0  0  0  0  0  0
   -1.4921   -2.2688    0.0000 C   0  0  0  0  0  0  0  0  0  0  0  0
   -1.4582   -1.4445    0.0000 C   0  0  0  0  0  0  0  0  0  0  0  0
   -2.1552   -1.0031    0.0000 Cl  0  0  0  0  0  0  0  0  0  0  0  0
   -0.7274   -1.0617    0.0000 C   0  0  0  0  0  0  0  0  0  0  0  0
    0.7092   -2.6143    0.0000 C   0  0  0  0  0  0  0  0  0  0  0  0
    1.1390   -3.3185    0.0000 N   0  0  0  0  0  0  0  0  0  0  0  0
    2.0888   -3.8162    0.0000 C   0  0  0  0  0  0  0  0  0  0  0  0
    2.7755   -3.3591    0.0000 N   0  0  0  0  0  0  0  0  0  0  0  0
    3.4225   -3.8710    0.0000 C   0  0  0  0  0  0  0  0  0  0  0  0
    4.1267   -3.4412    0.0000 N   0  0  0  0  0  0  0  0  0  0  0  0
    4.6244   -2.4914    0.0000 C   0  0  0  0  0  0  0  0  0  0  0  0
    5.4188   -2.2688    0.0000 C   0  0  0  0  0  0  0  0  0  0  0  0
    5.4527   -1.4445    0.0000 C   0  0  0  0  0  0  0  0  0  0  0  0
    6.1835   -1.0617    0.0000 C   0  0  0  0  0  0  0  0  0  0  0  0
    6.8804   -1.5031    0.0000 C   0  0  0  0  0  0  0  0  0  0  0  0
    6.8466   -2.3274    0.0000 C   0  0  0  0  0  0  0  0  0  0  0  0
    7.5435   -2.7689    0.0000 Cl  0  0  0  0  0  0  0  0  0  0  0  0
    6.1158   -2.7103    0.0000 C   0  0  0  0  0  0  0  0  0  0  0  0
    4.6792   -1.1576    0.0000 C   0  0  0  0  0  0  0  0  0  0  0  0
    4.2493   -0.4535    0.0000 N   0  0  0  0  0  0  0  0  0  0  0  0
    3.2996    0.0443    0.0000 C   0  0  0  0  0  0  0  0  0  0  0  0
    3.0770    0.8387    0.0000 C   0  0  0  0  0  0  0  0  0  0  0  0
    2.2527    0.8725    0.0000 C   0  0  0  0  0  0  0  0  0  0  0  0
    1.8699    1.6033    0.0000 C   0  0  0  0  0  0  0  0  0  0  0  0
    2.3113    2.3002    0.0000 C   0  0  0  0  0  0  0  0  0  0  0  0
    3.1356    2.2664    0.0000 C   0  0  0  0  0  0  0  0  0  0  0  0
    3.5771    2.9634    0.0000 Cl  0  0  0  0  0  0  0  0  0  0  0  0
    3.5185    1.5356    0.0000 C   0  0  0  0  0  0  0  0  0  0  0  0
    4.1673   -1.8046    0.0000 N   0  0  0  0  0  0  0  0  0  0  0  0
    3.1356   -4.6445    0.0000 C   0  0  0  0  0  0  0  0  0  0  0  0
    3.5185   -5.3753    0.0000 C   0  0  0  0  0  0  0  0  0  0  0  0
    3.0770   -6.0722    0.0000 C   0  0  0  0  0  0  0  0  0  0  0  0
    3.4599   -6.8030    0.0000 Cl  0  0  0  0  0  0  0  0  0  0  0  0
    2.2527   -6.0384    0.0000 C   0  0  0  0  0  0  0  0  0  0  0  0
    1.8699   -5.3076    0.0000 C   0  0  0  0  0  0  0  0  0  0  0  0
    2.3113   -4.6107    0.0000 C   0  0  0  0  0  0  0  0  0  0  0  0
    1.2211   -1.9674    0.0000 N   0  0  0  0  0  0  0  0  0  0  0  0
  2  1  1  0  0  0  0
  3  2  1  4  0  0  0
  3  4  2  0  0  0  0
  5  4  1  0  0  0  0
  5  6  2  0  0  0  0
  6  7  1  0  0  0  0
  7  8  2  0  0  0  0
  8  9  1  0  0  0  0
  9 10  1  0  0  0  0
  9 11  2  0  0  0  0
 11  5  1  0  0  0  0
 12  6  1  0  0  0  0
 13 12  1  4  0  0  0
 13 14  2  0  0  0  0
 15 14  1  0  0  0  0
 16 15  1  0  0  0  0
 17 16  1  4  0  0  0
 17 18  2  0  0  0  0
 19 18  1  0  0  0  0
 19 20  2  0  0  0  0
 20 21  1  0  0  0  0
 21 22  2  0  0  0  0
 22 23  1  0  0  0  0
 23 24  1  0  0  0  0
 23 25  2  0  0  0  0
 25 19  1  0  0  0  0
 26 20  1  0  0  0  0
 27 26  1  4  0  0  0
 27 28  2  0  0  0  0
  1 28  1  0  0  0  0
 28 29  1  0  0  0  0
 30 29  2  0  0  0  0
 30  2  1  0  0  0  0
 31 30  1  0  0  0  0
 32 31  2  0  0  0  0
 33 32  1  0  0  0  0
 33 34  1  0  0  0  0
 35 33  2  0  0  0  0
 29 35  1  0  0  0  0
 36 26  2  0  0  0  0
 18 36  1  0  0  0  0
 37 16  1  0  0  0  0
 37 38  2  0  0  0  0
 38 39  1  0  0  0  0
 39 40  1  0  0  0  0
 39 41  2  0  0  0  0
 41 42  1  0  0  0  0
 42 43  2  0  0  0  0
 14 43  1  0  0  0  0
 43 37  1  0  0  0  0
 44 12  2  0  0  0  0
  4 44  1  0  0  0  0
M  END
> <RowID>
666

> <Original_SMILES>
[Cu+2].ClC1=CC2C3[N-]C(=NC4=NC(=NC5[N-]C(=NC6=NC(=N3)C3=CC(Cl)=CC=C36)C3C=C(Cl)C=CC=35)C3=CC(Cl)=CC=C34)C=2C=C1

> <Canonical_QSARr>
ClC1C=C2C3NC(=NC4=NC(=NC5NC(=NC6=NC(=N3)C3C=C(Cl)C=CC=36)C3C=C(Cl)C=CC=35)C3C=C(Cl)C=CC=34)C2=CC=1

> <InChI_Code_QSARr>
InChI=1S/C32H16Cl4N8/c33-13-1-5-17-21(9-13)29-38-25(17)37-26-18-6-2-15(35)11-23(18)31(39-26)44-32-24-12-16(36)4-8-20(24)28(43-32)42-30-22-10-14(34)3-7-19(22)27(40-29)41-30/h1-12,27,31H,(H,37,38,39,40)(H,41,42,43,44)

> <InChI Key_QSARr>
FKUNNPQIOBJIHA-UHFFFAOYSA-N

> <Salt_Solvent>
[Cu+2]

> <Salt_Solvent_ID>
290

> <Number of connected components>
2

$$$$
Molecule_667
  Mrv2316 01072400032D          

 24 23  0  0  0  0            999 V2000
   -1.0974    1.8414    0.0000 C   0  0  0  0  0  0  0  0  0  0  0  0
   -0.3829    1.4289    0.0000 Si  0  0  0  0  0  0  0  0  0  0  0  0
   -0.7954    0.7145    0.0000 C   0  0  0  0  0  0  0  0  0  0  0  0
    0.0296    2.1434    0.0000 C   0  0  0  0  0  0  0  0  0  0  0  0
    0.3316    1.0164    0.0000 O   0  0  0  0  0  0  0  0  0  0  0  0
    1.0461    1.4289    0.0000 Si  0  0  0  0  0  0  0  0  0  0  0  0
    1.7605    1.8414    0.0000 C   0  0  0  0  0  0  0  0  0  0  0  0
    2.4750    1.4289    0.0000 C   0  0  0  0  0  0  0  0  0  0  0  0
    3.1895    1.8414    0.0000 C   0  0  0  0  0  0  0  0  0  0  0  0
    3.9039    1.4289    0.0000 N   0  0  0  0  0  0  0  0  0  0  0  0
    4.6184    1.8414    0.0000 C   0  0  0  0  0  0  0  0  0  0  0  0
    4.6184    2.6664    0.0000 O   0  0  0  0  0  0  0  0  0  0  0  0
    5.3329    1.4289    0.0000 C   0  0  0  0  0  0  0  0  0  0  0  0
    6.0474    1.8414    0.0000 C   0  0  0  0  0  0  0  0  0  0  0  0
    1.4586    0.7145    0.0000 O   0  0  0  0  0  0  0  0  0  0  0  0
    1.0461   -0.0000    0.0000 Si  0  0  0  0  0  0  0  0  0  0  0  0
    0.3316    0.4125    0.0000 C   0  0  0  0  0  0  0  0  0  0  0  0
    1.7605   -0.4125    0.0000 C   0  0  0  0  0  0  0  0  0  0  0  0
    0.6336   -0.7145    0.0000 C   0  0  0  0  0  0  0  0  0  0  0  0
    0.6336    2.1434    0.0000 O   0  0  0  0  0  0  0  0  0  0  0  0
    1.0461    2.8579    0.0000 Si  0  0  0  0  0  0  0  0  0  0  0  0
    1.7605    2.4454    0.0000 C   0  0  0  0  0  0  0  0  0  0  0  0
    0.3316    3.2704    0.0000 C   0  0  0  0  0  0  0  0  0  0  0  0
    1.4586    3.5723    0.0000 C   0  0  0  0  0  0  0  0  0  0  0  0
  1  2  1  0  0  0  0
  2  3  1  0  0  0  0
  2  4  1  0  0  0  0
  2  5  1  0  0  0  0
  5  6  1  0  0  0  0
  6  7  1  0  0  0  0
  7  8  1  0  0  0  0
  8  9  1  0  0  0  0
  9 10  1  0  0  0  0
 10 11  1  0  0  0  0
 11 12  2  0  0  0  0
 11 13  1  0  0  0  0
 13 14  2  0  0  0  0
  6 15  1  0  0  0  0
 15 16  1  0  0  0  0
 16 17  1  0  0  0  0
 16 18  1  0  0  0  0
 16 19  1  0  0  0  0
  6 20  1  0  0  0  0
 20 21  1  0  0  0  0
 21 22  1  0  0  0  0
 21 23  1  0  0  0  0
 21 24  1  0  0  0  0
M  END
> <RowID>
667

> <Original_SMILES>
C[Si](C)(C)O[Si](CCCNC(=O)C=C)(O[Si](C)(C)C)O[Si](C)(C)C

> <Canonical_QSARr>
C[Si](C)(C)O[Si](CCCNC(=O)C=C)(O[Si](C)(C)C)O[Si](C)(C)C

> <InChI_Code_QSARr>
InChI=1S/C15H37NO4Si4/c1-11-15(17)16-13-12-14-24(18-21(2,3)4,19-22(5,6)7)20-23(8,9)10/h11H,1,12-14H2,2-10H3,(H,16,17)

> <InChI Key_QSARr>
VJUBAEVLVNBCON-UHFFFAOYSA-N

> <Salt_Solvent>


> <Salt_Solvent_ID>
0

> <Number of connected components>
1

$$$$
Molecule_668
  Mrv2316 01072400032D          

 11 11  0  0  0  0            999 V2000
    1.6238    3.7125    0.0000 C   0  0  0  0  0  0  0  0  0  0  0  0
    0.9093    3.3000    0.0000 C   0  0  0  0  0  0  0  0  0  0  0  0
    0.1949    3.7125    0.0000 O   0  0  0  0  0  0  0  0  0  0  0  0
    0.9093    2.4750    0.0000 C   0  0  0  0  0  0  0  0  0  0  0  0
    0.1949    2.0625    0.0000 C   0  0  0  0  0  0  0  0  0  0  0  0
    0.1949    1.2375    0.0000 C   0  0  0  0  0  0  0  0  0  0  0  0
   -0.5196    0.8250    0.0000 C   0  0  0  0  0  0  0  0  0  0  0  0
   -0.5196   -0.0000    0.0000 C   0  0  0  0  0  0  0  0  0  0  0  0
    0.1949   -0.4125    0.0000 C   0  0  0  0  0  0  0  0  0  0  0  0
    0.9093    0.0000    0.0000 C   0  0  0  0  0  0  0  0  0  0  0  0
    0.9093    0.8250    0.0000 C   0  0  0  0  0  0  0  0  0  0  0  0
  1  2  1  0  0  0  0
  2  3  2  0  0  0  0
  2  4  1  0  0  0  0
  4  5  1  0  0  0  0
  5  6  1  0  0  0  0
  7  6  1  0  0  0  0
  8  7  2  0  0  0  0
  9  8  1  0  0  0  0
 10  9  2  0  0  0  0
 11 10  1  0  0  0  0
  6 11  2  0  0  0  0
M  END
> <RowID>
668

> <Original_SMILES>
CC(=O)CCC1C=CC=CC=1

> <Canonical_QSARr>
CC(=O)CCC1C=CC=CC=1

> <InChI_Code_QSARr>
InChI=1S/C10H12O/c1-9(11)7-8-10-5-3-2-4-6-10/h2-6H,7-8H2,1H3

> <InChI Key_QSARr>
AKGGYBADQZYZPD-UHFFFAOYSA-N

> <Salt_Solvent>


> <Salt_Solvent_ID>
0

> <Number of connected components>
1

$$$$
Molecule_669
  Mrv2316 01072400032D          

  4  3  0  0  0  0            999 V2000
    0.8250   -0.0000    0.0000 C   0  0  0  0  0  0  0  0  0  0  0  0
    1.2375    0.7145    0.0000 O   0  0  0  0  0  0  0  0  0  0  0  0
    1.2375   -0.7145    0.0000 O   0  0  0  0  0  0  0  0  0  0  0  0
    0.0000   -0.0000    0.0000 O   0  0  0  0  0  0  0  0  0  0  0  0
  1  2  1  0  0  0  0
  1  3  2  0  0  0  0
  1  4  1  0  0  0  0
M  END
> <RowID>
669

> <Original_SMILES>
[OH-].[OH-].[Pb+2].[Pb+2].[Pb+2].[O-]C([O-])=O.[O-]C([O-])=O

> <Canonical_QSARr>
OC(O)=O

> <InChI_Code_QSARr>
InChI=1S/CH2O3/c2-1(3)4/h(H2,2,3,4)

> <InChI Key_QSARr>
BVKZGUZCCUSVTD-UHFFFAOYSA-N

> <Salt_Solvent>
[OH-].[Pb+2]

> <Salt_Solvent_ID>
450

> <Number of connected components>
7

$$$$
Molecule_670
  Mrv2316 01072400032D          

 16 15  0  0  0  0            999 V2000
    4.7586    3.5724    0.0000 C   0  0  0  0  0  0  0  0  0  0  0  0
    5.4730    3.9849    0.0000 O   0  0  0  0  0  0  0  0  0  0  0  0
    6.1875    3.5724    0.0000 C   0  0  0  0  0  0  0  0  0  0  0  0
    6.1875    2.7474    0.0000 O   0  0  0  0  0  0  0  0  0  0  0  0
    6.9020    3.9849    0.0000 C   0  0  0  0  0  0  0  0  0  0  0  0
    7.6164    3.5724    0.0000 C   0  0  0  0  0  0  0  0  0  0  0  0
    8.3309    3.9849    0.0000 C   0  0  0  0  0  0  0  0  0  0  0  0
    9.0454    3.5724    0.0000 C   0  0  0  0  0  0  0  0  0  0  0  0
    9.7599    3.9849    0.0000 C   0  0  0  0  0  0  0  0  0  0  0  0
   10.4743    3.5724    0.0000 C   0  0  0  0  0  0  0  0  0  0  0  0
   11.1888    3.9849    0.0000 C   0  0  0  0  0  0  0  0  0  0  0  0
   11.9033    3.5724    0.0000 C   0  0  0  0  0  0  0  0  0  0  0  0
   12.6177    3.9849    0.0000 C   0  0  0  0  0  0  0  0  0  0  0  0
   12.6177    4.8099    0.0000 O   0  0  0  0  0  0  0  0  0  0  0  0
   13.3322    3.5724    0.0000 O   0  0  0  0  0  0  0  0  0  0  0  0
   14.0467    3.9849    0.0000 C   0  0  0  0  0  0  0  0  0  0  0  0
  1  2  1  0  0  0  0
  2  3  1  0  0  0  0
  3  4  2  0  0  0  0
  3  5  1  0  0  0  0
  5  6  1  0  0  0  0
  6  7  1  0  0  0  0
  7  8  1  0  0  0  0
  8  9  1  0  0  0  0
  9 10  1  0  0  0  0
 10 11  1  0  0  0  0
 11 12  1  0  0  0  0
 12 13  1  0  0  0  0
 13 14  2  0  0  0  0
 13 15  1  0  0  0  0
 15 16  1  0  0  0  0
M  END
> <RowID>
670

> <Original_SMILES>
COC(=O)CCCCCCCCC(=O)OC

> <Canonical_QSARr>
COC(=O)CCCCCCCCC(=O)OC

> <InChI_Code_QSARr>
InChI=1S/C12H22O4/c1-15-11(13)9-7-5-3-4-6-8-10-12(14)16-2/h3-10H2,1-2H3

> <InChI Key_QSARr>
ALOUNLDAKADEEB-UHFFFAOYSA-N

> <Salt_Solvent>


> <Salt_Solvent_ID>
0

> <Number of connected components>
1

$$$$
Molecule_671
  Mrv2316 01072400032D          

 16 15  0  0  0  0            999 V2000
    2.8579   -8.6329    0.0000 C   0  0  0  0  0  0  0  0  0  0  0  0
    2.8579   -7.8079    0.0000 C   0  0  0  0  0  0  0  0  0  0  0  0
    2.1434   -7.3954    0.0000 C   0  0  0  0  0  0  0  0  0  0  0  0
    2.1434   -6.5704    0.0000 C   0  0  0  0  0  0  0  0  0  0  0  0
    1.4289   -6.1579    0.0000 O   0  0  0  0  0  0  0  0  0  0  0  0
    1.4289   -5.3329    0.0000 B   0  0  0  0  0  0  0  0  0  0  0  0
    0.7145   -4.9204    0.0000 O   0  0  0  0  0  0  0  0  0  0  0  0
    0.7145   -4.0954    0.0000 C   0  0  0  0  0  0  0  0  0  0  0  0
    0.0000   -3.6829    0.0000 C   0  0  0  0  0  0  0  0  0  0  0  0
    0.0000   -2.8579    0.0000 C   0  0  0  0  0  0  0  0  0  0  0  0
   -0.7145   -2.4454    0.0000 C   0  0  0  0  0  0  0  0  0  0  0  0
    2.1434   -4.9204    0.0000 O   0  0  0  0  0  0  0  0  0  0  0  0
    2.1434   -4.0954    0.0000 C   0  0  0  0  0  0  0  0  0  0  0  0
    2.8579   -3.6829    0.0000 C   0  0  0  0  0  0  0  0  0  0  0  0
    2.8579   -2.8579    0.0000 C   0  0  0  0  0  0  0  0  0  0  0  0
    3.5724   -2.4454    0.0000 C   0  0  0  0  0  0  0  0  0  0  0  0
  1  2  1  0  0  0  0
  2  3  1  0  0  0  0
  3  4  1  0  0  0  0
  4  5  1  0  0  0  0
  5  6  1  0  0  0  0
  6  7  1  0  0  0  0
  7  8  1  0  0  0  0
  8  9  1  0  0  0  0
  9 10  1  0  0  0  0
 10 11  1  0  0  0  0
  6 12  1  0  0  0  0
 12 13  1  0  0  0  0
 13 14  1  0  0  0  0
 14 15  1  0  0  0  0
 15 16  1  0  0  0  0
M  END
> <RowID>
671

> <Original_SMILES>
CCCCOB(OCCCC)OCCCC

> <Canonical_QSARr>
CCCCOB(OCCCC)OCCCC

> <InChI_Code_QSARr>
InChI=1S/C12H27BO3/c1-4-7-10-14-13(15-11-8-5-2)16-12-9-6-3/h4-12H2,1-3H3

> <InChI Key_QSARr>
LGQXXHMEBUOXRP-UHFFFAOYSA-N

> <Salt_Solvent>


> <Salt_Solvent_ID>
0

> <Number of connected components>
1

$$$$
Molecule_672
  Mrv2316 01072400032D          

  4  3  0  0  0  0            999 V2000
    0.8250   -0.0000    0.0000 C   0  0  0  0  0  0  0  0  0  0  0  0
    1.2375    0.7145    0.0000 O   0  0  0  0  0  0  0  0  0  0  0  0
    1.2375   -0.7145    0.0000 O   0  0  0  0  0  0  0  0  0  0  0  0
    0.0000   -0.0000    0.0000 O   0  0  0  0  0  0  0  0  0  0  0  0
  1  2  1  0  0  0  0
  1  3  2  0  0  0  0
  1  4  1  0  0  0  0
M  END
> <RowID>
672

> <Original_SMILES>
[Ca+2].[O-]C([O-])=O

> <Canonical_QSARr>
OC(O)=O

> <InChI_Code_QSARr>
InChI=1S/CH2O3/c2-1(3)4/h(H2,2,3,4)

> <InChI Key_QSARr>
BVKZGUZCCUSVTD-UHFFFAOYSA-N

> <Salt_Solvent>
[Ca+2]

> <Salt_Solvent_ID>
200

> <Number of connected components>
2

$$$$
Molecule_673
  Mrv2316 01072400032D          

 31 32  0  0  0  0            999 V2000
   -9.1394    0.4309    0.0000 C   0  0  0  0  0  0  0  0  0  0  0  0
   -8.4249    0.0184    0.0000 C   0  0  0  0  0  0  0  0  0  0  0  0
   -8.4249   -0.8066    0.0000 C   0  0  0  0  0  0  0  0  0  0  0  0
   -7.7105    0.4309    0.0000 C   0  0  0  0  0  0  0  0  0  0  0  0
   -6.9960    0.0184    0.0000 C   0  0  0  0  0  0  0  0  0  0  0  0
   -6.2815    0.4309    0.0000 C   0  0  0  0  0  0  0  0  0  0  0  0
   -5.5671    0.0184    0.0000 C   0  0  0  0  0  0  0  0  0  0  0  0
   -5.5671   -0.8066    0.0000 C   0  0  0  0  0  0  0  0  0  0  0  0
   -4.8526    0.4309    0.0000 C   0  0  0  0  0  0  0  0  0  0  0  0
   -4.1381    0.0184    0.0000 C   0  0  0  0  0  0  0  0  0  0  0  0
   -3.4237    0.4309    0.0000 C   0  0  0  0  0  0  0  0  0  0  0  0
   -2.7092    0.0184    0.0000 C   0  0  0  0  0  0  0  0  0  0  0  0
   -2.7092   -0.8066    0.0000 C   0  0  0  0  0  0  0  0  0  0  0  0
   -1.9947    0.4309    0.0000 C   0  0  0  0  0  0  0  0  0  0  0  0
   -1.2802    0.0184    0.0000 C   0  0  0  0  0  0  0  0  0  0  0  0
   -0.5658    0.4309    0.0000 C   0  0  0  0  0  0  0  0  0  0  0  0
   -0.5658    1.2559    0.0000 C   0  0  0  0  0  0  0  0  0  0  0  0
   -1.3782    1.1126    0.0000 C   0  0  0  0  0  0  0  0  0  0  0  0
    0.2467    1.1126    0.0000 C   0  0  0  0  0  0  0  0  0  0  0  0
    0.7770    1.7446    0.0000 C   0  0  0  0  0  0  0  0  0  0  0  0
    0.4948    2.5199    0.0000 C   0  0  0  0  0  0  0  0  0  0  0  0
   -0.3176    2.6631    0.0000 C   0  0  0  0  0  0  0  0  0  0  0  0
   -0.5998    3.4384    0.0000 C   0  0  0  0  0  0  0  0  0  0  0  0
   -1.4123    3.5816    0.0000 C   0  0  0  0  0  0  0  0  0  0  0  0
   -0.0695    4.0704    0.0000 C   0  0  0  0  0  0  0  0  0  0  0  0
   -0.3517    4.8456    0.0000 C   0  0  0  0  0  0  0  0  0  0  0  0
    0.7430    3.9271    0.0000 C   0  0  0  0  0  0  0  0  0  0  0  0
    1.2733    4.5591    0.0000 O   0  0  0  0  0  0  0  0  0  0  0  0
    1.0251    3.1519    0.0000 C   0  0  0  0  0  0  0  0  0  0  0  0
    1.8376    3.0086    0.0000 C   0  0  0  0  0  0  0  0  0  0  0  0
   -0.8479    2.0311    0.0000 O   0  0  0  0  0  0  0  0  0  0  0  0
  1  2  1  0  0  0  0
  2  3  1  0  0  0  0
  2  4  1  0  0  0  0
  4  5  1  0  0  0  0
  5  6  1  0  0  0  0
  6  7  1  0  0  0  0
  7  8  1  0  0  0  0
  7  9  1  0  0  0  0
  9 10  1  0  0  0  0
 10 11  1  0  0  0  0
 11 12  1  0  0  0  0
 12 13  1  0  0  0  0
 12 14  1  0  0  0  0
 14 15  1  0  0  0  0
 15 16  1  0  0  0  0
 16 17  1  0  0  0  0
 17 18  1  0  0  0  0
 19 17  1  0  0  0  0
 20 19  1  0  0  0  0
 21 20  1  0  0  0  0
 21 22  2  0  0  0  0
 22 23  1  0  0  0  0
 23 24  1  0  0  0  0
 23 25  2  0  0  0  0
 25 26  1  0  0  0  0
 25 27  1  0  0  0  0
 27 28  1  0  0  0  0
 27 29  2  0  0  0  0
 29 21  1  0  0  0  0
 29 30  1  0  0  0  0
 31 22  1  0  0  0  0
 17 31  1  0  0  0  0
M  END
> <RowID>
673

> <Original_SMILES>
CC(C)CCCC(C)CCCC(C)CCCC1(C)CCC2=C(O1)C(C)=C(C)C(O)=C2C

> <Canonical_QSARr>
CC(C)CCCC(C)CCCC(C)CCCC1(C)CCC2=C(O1)C(C)=C(C)C(O)=C2C

> <InChI_Code_QSARr>
InChI=1S/C29H50O2/c1-20(2)12-9-13-21(3)14-10-15-22(4)16-11-18-29(8)19-17-26-25(7)27(30)23(5)24(6)28(26)31-29/h20-22,30H,9-19H2,1-8H3

> <InChI Key_QSARr>
GVJHHUAWPYXKBD-UHFFFAOYSA-N

> <Salt_Solvent>


> <Salt_Solvent_ID>
0

> <Number of connected components>
1

$$$$
Molecule_674
  Mrv2316 01072400032D          

 17 16  0  0  0  0            999 V2000
   -1.4289    3.9039    0.0000 C   0  0  0  0  0  0  0  0  0  0  0  0
   -0.7145    3.4914    0.0000 C   0  0  0  0  0  0  0  0  0  0  0  0
   -0.7145    2.6664    0.0000 C   0  0  0  0  0  0  0  0  0  0  0  0
   -0.0000    2.2539    0.0000 O   0  0  0  0  0  0  0  0  0  0  0  0
   -0.0000    1.4289    0.0000 Si  0  0  0  0  0  0  0  0  0  0  0  0
   -0.0000    0.6039    0.0000 O   0  0  0  0  0  0  0  0  0  0  0  0
   -0.7145    0.1914    0.0000 C   0  0  0  0  0  0  0  0  0  0  0  0
   -0.7145   -0.6336    0.0000 C   0  0  0  0  0  0  0  0  0  0  0  0
   -0.0000   -1.0461    0.0000 C   0  0  0  0  0  0  0  0  0  0  0  0
   -0.8250    1.4289    0.0000 O   0  0  0  0  0  0  0  0  0  0  0  0
   -1.2375    0.7144    0.0000 C   0  0  0  0  0  0  0  0  0  0  0  0
   -2.0625    0.7144    0.0000 C   0  0  0  0  0  0  0  0  0  0  0  0
   -2.4750    1.4289    0.0000 C   0  0  0  0  0  0  0  0  0  0  0  0
    0.8250    1.4289    0.0000 O   0  0  0  0  0  0  0  0  0  0  0  0
    1.2375    0.7144    0.0000 C   0  0  0  0  0  0  0  0  0  0  0  0
    0.8250   -0.0000    0.0000 C   0  0  0  0  0  0  0  0  0  0  0  0
   -0.0000   -0.0000    0.0000 C   0  0  0  0  0  0  0  0  0  0  0  0
  1  2  1  0  0  0  0
  2  3  1  0  0  0  0
  3  4  1  0  0  0  0
  4  5  1  0  0  0  0
  5  6  1  0  0  0  0
  6  7  1  0  0  0  0
  7  8  1  0  0  0  0
  8  9  1  0  0  0  0
  5 10  1  0  0  0  0
 10 11  1  0  0  0  0
 11 12  1  0  0  0  0
 12 13  1  0  0  0  0
  5 14  1  0  0  0  0
 14 15  1  0  0  0  0
 15 16  1  0  0  0  0
 16 17  1  0  0  0  0
M  END
> <RowID>
674

> <Original_SMILES>
CCCO[Si](OCCC)(OCCC)OCCC

> <Canonical_QSARr>
CCCO[Si](OCCC)(OCCC)OCCC

> <InChI_Code_QSARr>
InChI=1S/C12H28O4Si/c1-5-9-13-17(14-10-6-2,15-11-7-3)16-12-8-4/h5-12H2,1-4H3

> <InChI Key_QSARr>
ZQZCOBSUOFHDEE-UHFFFAOYSA-N

> <Salt_Solvent>


> <Salt_Solvent_ID>
0

> <Number of connected components>
1

$$$$
Molecule_675
  Mrv2316 01072400032D          

 20 19  0  0  0  0            999 V2000
    5.3328   -2.5854    0.0000 O   0  0  0  0  0  0  0  0  0  0  0  0
    4.5226   -2.7413    0.0000 C   0  0  0  0  0  0  0  0  0  0  0  0
    4.2526   -3.5209    0.0000 O   0  0  0  0  0  0  0  0  0  0  0  0
    3.9825   -2.1177    0.0000 C   0  0  0  0  0  0  0  0  0  0  0  0
    4.2526   -1.3381    0.0000 N   0  0  0  0  0  0  0  0  0  0  0  0
    3.7125   -0.7145    0.0000 C   0  0  0  0  0  0  0  0  0  0  0  0
    2.9024   -0.8704    0.0000 C   0  0  0  0  0  0  0  0  0  0  0  0
    2.6323   -1.6499    0.0000 O   0  0  0  0  0  0  0  0  0  0  0  0
    2.3623   -0.2467    0.0000 O   0  0  0  0  0  0  0  0  0  0  0  0
    5.0627   -1.1822    0.0000 C   0  0  0  0  0  0  0  0  0  0  0  0
    5.3328   -0.4027    0.0000 C   0  0  0  0  0  0  0  0  0  0  0  0
    6.1429   -0.2467    0.0000 N   0  0  0  0  0  0  0  0  0  0  0  0
    6.4129    0.5328    0.0000 C   0  0  0  0  0  0  0  0  0  0  0  0
    5.8729    1.1564    0.0000 C   0  0  0  0  0  0  0  0  0  0  0  0
    6.1429    1.9360    0.0000 O   0  0  0  0  0  0  0  0  0  0  0  0
    5.0627    1.0005    0.0000 O   0  0  0  0  0  0  0  0  0  0  0  0
    6.6830   -0.8704    0.0000 C   0  0  0  0  0  0  0  0  0  0  0  0
    7.4931   -0.7145    0.0000 C   0  0  0  0  0  0  0  0  0  0  0  0
    7.7632    0.0651    0.0000 O   0  0  0  0  0  0  0  0  0  0  0  0
    8.0332   -1.3381    0.0000 O   0  0  0  0  0  0  0  0  0  0  0  0
  1  2  1  0  0  0  0
  2  3  2  0  0  0  0
  2  4  1  0  0  0  0
  4  5  1  0  0  0  0
  5  6  1  0  0  0  0
  6  7  1  0  0  0  0
  7  8  1  0  0  0  0
  7  9  2  0  0  0  0
  5 10  1  0  0  0  0
 10 11  1  0  0  0  0
 11 12  1  0  0  0  0
 12 13  1  0  0  0  0
 13 14  1  0  0  0  0
 14 15  1  0  0  0  0
 14 16  2  0  0  0  0
 12 17  1  0  0  0  0
 17 18  1  0  0  0  0
 18 19  1  0  0  0  0
 18 20  2  0  0  0  0
M  END
> <RowID>
675

> <Original_SMILES>
[OH-].[K+].[K+].[Fe+3].[O-]C(=O)CN(CC([O-])=O)CCN(CC([O-])=O)CC([O-])=O

> <Canonical_QSARr>
OC(=O)CN(CC(O)=O)CCN(CC(O)=O)CC(O)=O

> <InChI_Code_QSARr>
InChI=1S/C10H16N2O8/c13-7(14)3-11(4-8(15)16)1-2-12(5-9(17)18)6-10(19)20/h1-6H2,(H,13,14)(H,15,16)(H,17,18)(H,19,20)

> <InChI Key_QSARr>
KCXVZYZYPLLWCC-UHFFFAOYSA-N

> <Salt_Solvent>
[OH-].[K+].[Fe+3]

> <Salt_Solvent_ID>
135

> <Number of connected components>
5

$$$$
Molecule_676
  Mrv2316 01072400032D          

  8  7  0  0  0  0            999 V2000
   -0.1914    0.7145    0.0000 C   0  0  0  0  0  0  0  0  0  0  0  0
    0.5230    1.1270    0.0000 N   0  0  0  0  0  0  0  0  0  0  0  0
    1.2375    0.7145    0.0000 C   0  0  0  0  0  0  0  0  0  0  0  0
    1.2375   -0.1105    0.0000 N   0  0  0  0  0  0  0  0  0  0  0  0
    1.9520    1.1270    0.0000 N   0  0  0  0  0  0  0  0  0  0  0  0
    2.6664    0.7145    0.0000 N   0  3  0  0  0  0  0  0  0  0  0  0
    3.3809    1.1270    0.0000 O   0  5  0  0  0  0  0  0  0  0  0  0
    2.6664   -0.1105    0.0000 O   0  0  0  0  0  0  0  0  0  0  0  0
  1  2  1  0  0  0  0
  2  3  1  0  0  0  0
  3  4  2  0  0  0  0
  3  5  1  0  0  0  0
  5  6  1  0  0  0  0
  6  7  1  0  0  0  0
  6  8  2  0  0  0  0
M  CHG  2   6   1   7  -1
M  END
> <RowID>
676

> <Original_SMILES>
CNC(=N)N[N+]([O-])=O

> <Canonical_QSARr>
CNC(=N)N[N+]([O-])=O

> <InChI_Code_QSARr>
InChI=1S/C2H6N4O2/c1-4-2(3)5-6(7)8/h1H3,(H3,3,4,5)

> <InChI Key_QSARr>
XCXKNNGWSDYMMS-UHFFFAOYSA-N

> <Salt_Solvent>


> <Salt_Solvent_ID>
0

> <Number of connected components>
1

$$$$
Molecule_678
  Mrv2316 01072400032D          

 14 14  0  0  0  0            999 V2000
   -0.0000   -1.5321    0.0000 C   0  0  0  0  0  0  0  0  0  0  0  0
    0.7145   -1.1196    0.0000 O   0  0  0  0  0  0  0  0  0  0  0  0
    0.7145   -0.2946    0.0000 C   0  0  0  0  0  0  0  0  0  0  0  0
    1.4289    0.1179    0.0000 C   0  0  0  0  0  0  0  0  0  0  0  0
    1.4289    0.9429    0.0000 C   0  0  0  0  0  0  0  0  0  0  0  0
    0.7145    1.3554    0.0000 C   0  0  0  0  0  0  0  0  0  0  0  0
    0.7145    2.1804    0.0000 C   0  0  0  0  0  0  0  0  0  0  0  0
   -0.0000    2.5929    0.0000 O   0  0  0  0  0  0  0  0  0  0  0  0
    1.4289    2.5929    0.0000 O   0  0  0  0  0  0  0  0  0  0  0  0
   -0.0000    0.9429    0.0000 C   0  0  0  0  0  0  0  0  0  0  0  0
   -0.0000    0.1179    0.0000 C   0  0  0  0  0  0  0  0  0  0  0  0
   -0.7145   -0.2946    0.0000 N   0  3  0  0  0  0  0  0  0  0  0  0
   -0.7145   -1.1196    0.0000 O   0  5  0  0  0  0  0  0  0  0  0  0
   -1.4289    0.1179    0.0000 O   0  0  0  0  0  0  0  0  0  0  0  0
  1  2  1  0  0  0  0
  2  3  1  0  0  0  0
  4  3  2  0  0  0  0
  5  4  1  0  0  0  0
  6  5  2  0  0  0  0
  6  7  1  0  0  0  0
  7  8  1  0  0  0  0
  7  9  2  0  0  0  0
 10  6  1  0  0  0  0
 11 10  2  0  0  0  0
  3 11  1  0  0  0  0
 11 12  1  0  0  0  0
 12 13  1  0  0  0  0
 12 14  2  0  0  0  0
M  CHG  2  12   1  13  -1
M  END
> <RowID>
678

> <Original_SMILES>
COC1=CC=C(C=C1[N+]([O-])=O)C(O)=O

> <Canonical_QSARr>
COC1=CC=C(C=C1[N+]([O-])=O)C(O)=O

> <InChI_Code_QSARr>
InChI=1S/C8H7NO5/c1-14-7-3-2-5(8(10)11)4-6(7)9(12)13/h2-4H,1H3,(H,10,11)

> <InChI Key_QSARr>
ANXBDAFDZSXOPQ-UHFFFAOYSA-N

> <Salt_Solvent>


> <Salt_Solvent_ID>
0

> <Number of connected components>
1

$$$$
Molecule_679
  Mrv2316 01072400032D          

 16 15  0  0  0  0            999 V2000
    6.7105    4.6993    0.0000 O   0  0  0  0  0  0  0  0  0  0  0  0
    7.4250    4.2868    0.0000 C   0  0  0  0  0  0  0  0  0  0  0  0
    7.4250    3.4618    0.0000 O   0  0  0  0  0  0  0  0  0  0  0  0
    8.1395    4.6993    0.0000 C   0  0  0  0  0  0  0  0  0  0  0  0
    8.8539    4.2868    0.0000 C   0  0  0  0  0  0  0  0  0  0  0  0
    9.5684    4.6993    0.0000 C   0  0  0  0  0  0  0  0  0  0  0  0
   10.2829    4.2868    0.0000 C   0  0  0  0  0  0  0  0  0  0  0  0
   10.9974    4.6993    0.0000 C   0  0  0  0  0  0  0  0  0  0  0  0
   11.7118    4.2868    0.0000 C   0  0  0  0  0  0  0  0  0  0  0  0
   12.4263    4.6993    0.0000 C   0  0  0  0  0  0  0  0  0  0  0  0
   13.1408    4.2868    0.0000 C   0  0  0  0  0  0  0  0  0  0  0  0
   13.8552    4.6993    0.0000 C   0  0  0  0  0  0  0  0  0  0  0  0
   14.5697    4.2868    0.0000 C   0  0  0  0  0  0  0  0  0  0  0  0
   15.2842    4.6993    0.0000 C   0  0  0  0  0  0  0  0  0  0  0  0
   15.9987    4.2868    0.0000 C   0  0  0  0  0  0  0  0  0  0  0  0
   16.7131    4.6993    0.0000 C   0  0  0  0  0  0  0  0  0  0  0  0
  1  2  1  0  0  0  0
  2  3  2  0  0  0  0
  2  4  1  0  0  0  0
  4  5  1  0  0  0  0
  5  6  1  0  0  0  0
  6  7  1  0  0  0  0
  7  8  1  0  0  0  0
  8  9  1  0  0  0  0
  9 10  1  0  0  0  0
 10 11  1  0  0  0  0
 11 12  1  0  0  0  0
 12 13  1  0  0  0  0
 13 14  1  0  0  0  0
 14 15  1  0  0  0  0
 15 16  1  0  0  0  0
M  END
> <RowID>
679

> <Original_SMILES>
[Li+].CCCCCCCCCCCCCC([O-])=O

> <Canonical_QSARr>
CCCCCCCCCCCCCC(O)=O

> <InChI_Code_QSARr>
InChI=1S/C14H28O2/c1-2-3-4-5-6-7-8-9-10-11-12-13-14(15)16/h2-13H2,1H3,(H,15,16)

> <InChI Key_QSARr>
TUNFSRHWOTWDNC-UHFFFAOYSA-N

> <Salt_Solvent>
[Li+]

> <Salt_Solvent_ID>
30

> <Number of connected components>
2

$$$$
Molecule_680
  Mrv2316 01072400032D          

 10 11  0  0  0  0            999 V2000
   -0.6276    0.7245    0.0000 C   0  0  0  0  0  0  0  0  0  0  0  0
   -0.1151    0.1578    0.0000 C   0  0  0  0  0  0  0  0  0  0  0  0
   -0.6404   -0.3361    0.0000 C   0  0  0  0  0  0  0  0  0  0  0  0
    0.4190    0.8961    0.0000 C   0  0  0  0  0  0  0  0  0  0  0  0
    0.2318    0.1838    0.0000 C   0  0  0  0  0  0  0  0  0  0  0  0
    0.4018   -0.5328    0.0000 C   0  0  0  0  0  0  0  0  0  0  0  0
    1.2268   -0.5427    0.0000 C   0  0  0  0  0  0  0  0  0  0  0  0
    1.6478    0.1667    0.0000 C   0  0  0  0  0  0  0  0  0  0  0  0
    1.2440    0.8861    0.0000 C   0  0  0  0  0  0  0  0  0  0  0  0
    1.6650    1.5956    0.0000 C   0  0  0  0  0  0  0  0  0  0  0  0
  1  2  1  0  0  0  0
  2  3  1  0  0  0  0
  4  2  1  0  0  0  0
  4  5  1  0  0  0  0
  5  6  1  0  0  0  0
  2  6  1  0  0  0  0
  6  7  1  0  0  0  0
  7  8  1  0  0  0  0
  8  9  1  0  0  0  0
  9  4  1  0  0  0  0
  9 10  2  0  0  0  0
M  END
> <RowID>
680

> <Original_SMILES>
CC1(C)C2CC1CCC2=C

> <Canonical_QSARr>
CC1(C)C2CC1CCC2=C

> <InChI_Code_QSARr>
InChI=1S/C10H16/c1-7-4-5-8-6-9(7)10(8,2)3/h8-9H,1,4-6H2,2-3H3

> <InChI Key_QSARr>
WTARULDDTDQWMU-UHFFFAOYSA-N

> <Salt_Solvent>


> <Salt_Solvent_ID>
0

> <Number of connected components>
1

$$$$
Molecule_682
  Mrv2316 01072400032D          

 38 39  0  0  0  0            999 V2000
    3.6476   12.7875    0.0000 O   0  5  0  0  0  0  0  0  0  0  0  0
    2.9331   12.3750    0.0000 N   0  3  0  0  0  0  0  0  0  0  0  0
    2.9331   11.5500    0.0000 C   0  0  0  0  0  0  0  0  0  0  0  0
    2.2186   11.1375    0.0000 C   0  0  0  0  0  0  0  0  0  0  0  0
    2.2186   10.3125    0.0000 C   0  0  0  0  0  0  0  0  0  0  0  0
    1.5042    9.9000    0.0000 Br  0  0  0  0  0  0  0  0  0  0  0  0
    2.9331    9.9000    0.0000 C   0  0  0  0  0  0  0  0  0  0  0  0
    2.9331    9.0750    0.0000 N   0  0  0  0  0  0  0  0  0  0  0  0
    3.6476    8.6625    0.0000 N   0  0  0  0  0  0  0  0  0  0  0  0
    3.6476    7.8375    0.0000 C   0  0  0  0  0  0  0  0  0  0  0  0
    2.9331    7.4250    0.0000 C   0  0  0  0  0  0  0  0  0  0  0  0
    2.9331    6.6000    0.0000 C   0  0  0  0  0  0  0  0  0  0  0  0
    2.2186    6.1875    0.0000 O   0  0  0  0  0  0  0  0  0  0  0  0
    1.5042    6.6000    0.0000 C   0  0  0  0  0  0  0  0  0  0  0  0
    3.6476    6.1875    0.0000 C   0  0  0  0  0  0  0  0  0  0  0  0
    3.6476    5.3625    0.0000 N   0  0  0  0  0  0  0  0  0  0  0  0
    2.9331    4.9500    0.0000 C   0  0  0  0  0  0  0  0  0  0  0  0
    2.9331    4.1250    0.0000 C   0  0  0  0  0  0  0  0  0  0  0  0
    3.6476    3.7125    0.0000 O   0  0  0  0  0  0  0  0  0  0  0  0
    2.2186    3.7125    0.0000 O   0  0  0  0  0  0  0  0  0  0  0  0
    2.2186    2.8875    0.0000 C   0  0  0  0  0  0  0  0  0  0  0  0
    4.3620    4.9500    0.0000 C   0  0  0  0  0  0  0  0  0  0  0  0
    4.3620    4.1250    0.0000 C   0  0  0  0  0  0  0  0  0  0  0  0
    4.0265    3.3713    0.0000 O   0  0  0  0  0  0  0  0  0  0  0  0
    5.0765    3.7125    0.0000 O   0  0  0  0  0  0  0  0  0  0  0  0
    5.0765    2.8875    0.0000 C   0  0  0  0  0  0  0  0  0  0  0  0
    4.3620    6.6000    0.0000 C   0  0  0  0  0  0  0  0  0  0  0  0
    4.3620    7.4250    0.0000 C   0  0  0  0  0  0  0  0  0  0  0  0
    5.0765    7.8375    0.0000 N   0  0  0  0  0  0  0  0  0  0  0  0
    5.7910    7.4250    0.0000 C   0  0  0  0  0  0  0  0  0  0  0  0
    6.5055    7.8375    0.0000 O   0  0  0  0  0  0  0  0  0  0  0  0
    5.7910    6.6000    0.0000 C   0  0  0  0  0  0  0  0  0  0  0  0
    3.6476   10.3125    0.0000 C   0  0  0  0  0  0  0  0  0  0  0  0
    4.3620    9.9000    0.0000 N   0  3  0  0  0  0  0  0  0  0  0  0
    5.0765   10.3125    0.0000 O   0  0  0  0  0  0  0  0  0  0  0  0
    4.3620    9.0750    0.0000 O   0  5  0  0  0  0  0  0  0  0  0  0
    3.6476   11.1375    0.0000 C   0  0  0  0  0  0  0  0  0  0  0  0
    2.2186   12.7875    0.0000 O   0  0  0  0  0  0  0  0  0  0  0  0
  1  2  1  0  0  0  0
  2  3  1  0  0  0  0
  4  3  1  0  0  0  0
  5  4  2  0  0  0  0
  5  6  1  0  0  0  0
  7  5  1  0  0  0  0
  8  7  1  4  0  0  0
  8  9  2  0  0  0  0
  9 10  1  0  0  0  0
 11 10  1  0  0  0  0
 12 11  2  0  0  0  0
 12 13  1  0  0  0  0
 13 14  1  0  0  0  0
 15 12  1  0  0  0  0
 15 16  1  0  0  0  0
 16 17  1  0  0  0  0
 17 18  1  0  0  0  0
 18 19  2  0  0  0  0
 18 20  1  0  0  0  0
 20 21  1  0  0  0  0
 16 22  1  0  0  0  0
 22 23  1  0  0  0  0
 23 24  2  0  0  0  0
 23 25  1  0  0  0  0
 25 26  1  0  0  0  0
 27 15  2  0  0  0  0
 28 27  1  0  0  0  0
 10 28  2  0  0  0  0
 28 29  1  0  0  0  0
 29 30  1  0  0  0  0
 30 31  2  0  0  0  0
 30 32  1  0  0  0  0
 33  7  2  0  0  0  0
 33 34  1  0  0  0  0
 34 35  2  0  0  0  0
 34 36  1  0  0  0  0
 37 33  1  0  0  0  0
  3 37  2  0  0  0  0
  2 38  2  0  0  0  0
M  CHG  4   1  -1   2   1  34   1  36  -1
M  END
> <RowID>
682

> <Original_SMILES>
CC(=O)NC1=CC(=C(C=C1N=NC1C(Br)=CC(=CC=1N(=O)=O)N(=O)=O)OC)N(CC(=O)OC)CC(=O)OC

> <Canonical_QSARr>
CC(=O)NC1C=C(C(=CC=1N=NC1C(Br)=CC(=CC=1[N+]([O-])=O)[N+]([O-])=O)OC)N(CC(=O)OC)CC(=O)OC

> <InChI_Code_QSARr>
InChI=1S/C21H21BrN6O10/c1-11(29)23-14-7-16(26(9-19(30)37-3)10-20(31)38-4)18(36-2)8-15(14)24-25-21-13(22)5-12(27(32)33)6-17(21)28(34)35/h5-8H,9-10H2,1-4H3,(H,23,29)

> <InChI Key_QSARr>
TWMVKFBKKKQSHA-UHFFFAOYSA-N

> <Salt_Solvent>


> <Salt_Solvent_ID>
0

> <Number of connected components>
1

$$$$
Molecule_683
  Mrv2316 01072400032D          

 45 49  0  0  0  0            999 V2000
   -1.6671   -3.7675    0.0000 C   0  0  0  0  0  0  0  0  0  0  0  0
   -0.9526   -4.1800    0.0000 O   0  0  0  0  0  0  0  0  0  0  0  0
   -0.2382   -3.7675    0.0000 C   0  0  0  0  0  0  0  0  0  0  0  0
   -0.2382   -2.9425    0.0000 O   0  0  0  0  0  0  0  0  0  0  0  0
    0.4763   -4.1800    0.0000 C   0  0  0  0  0  0  0  0  0  0  0  0
    0.4763   -5.0050    0.0000 C   0  0  0  0  0  0  0  0  0  0  0  0
    1.1908   -5.4175    0.0000 C   0  0  0  0  0  0  0  0  0  0  0  0
    1.9053   -5.0050    0.0000 C   0  0  0  0  0  0  0  0  0  0  0  0
    2.6197   -5.4175    0.0000 C   0  0  0  0  0  0  0  0  0  0  0  0
    3.3342   -5.0050    0.0000 O   0  0  0  0  0  0  0  0  0  0  0  0
    2.6197   -6.2425    0.0000 N   0  0  0  0  0  0  0  0  0  0  0  0
    3.3342   -6.6550    0.0000 C   0  0  0  0  0  0  0  0  0  0  0  0
    3.3342   -7.4800    0.0000 C   0  0  0  0  0  0  0  0  0  0  0  0
    4.0487   -7.8925    0.0000 C   0  0  0  0  0  0  0  0  0  0  0  0
    4.0487   -8.7175    0.0000 Cl  0  0  0  0  0  0  0  0  0  0  0  0
    4.7631   -7.4800    0.0000 C   0  0  0  0  0  0  0  0  0  0  0  0
    4.7631   -6.6550    0.0000 C   0  0  0  0  0  0  0  0  0  0  0  0
    4.0487   -6.2425    0.0000 C   0  0  0  0  0  0  0  0  0  0  0  0
    4.0487   -5.4175    0.0000 Cl  0  0  0  0  0  0  0  0  0  0  0  0
    1.9053   -4.1800    0.0000 C   0  0  0  0  0  0  0  0  0  0  0  0
    1.1908   -3.7675    0.0000 C   0  0  0  0  0  0  0  0  0  0  0  0
    1.1908   -2.9425    0.0000 N   0  0  0  0  0  0  0  0  0  0  0  0
    0.4763   -2.5300    0.0000 N   0  0  0  0  0  0  0  0  0  0  0  0
    0.4763   -1.7050    0.0000 C   0  0  0  0  0  0  0  0  0  0  0  0
   -0.2382   -1.2925    0.0000 C   0  0  0  0  0  0  0  0  0  0  0  0
   -0.9526   -1.7050    0.0000 O   0  0  0  0  0  0  0  0  0  0  0  0
   -0.2382   -0.4675    0.0000 C   0  0  0  0  0  0  0  0  0  0  0  0
   -0.9526   -0.0550    0.0000 C   0  0  0  0  0  0  0  0  0  0  0  0
   -1.6671   -0.4675    0.0000 O   0  0  0  0  0  0  0  0  0  0  0  0
   -0.9526    0.7700    0.0000 N   0  0  0  0  0  0  0  0  0  0  0  0
   -1.6671    1.1825    0.0000 C   0  0  0  0  0  0  0  0  0  0  0  0
   -1.6671    2.0075    0.0000 C   0  0  0  0  0  0  0  0  0  0  0  0
   -2.3816    2.4200    0.0000 C   0  0  0  0  0  0  0  0  0  0  0  0
   -3.0960    2.0075    0.0000 C   0  0  0  0  0  0  0  0  0  0  0  0
   -3.0960    1.1825    0.0000 C   0  0  0  0  0  0  0  0  0  0  0  0
   -2.3816    0.7700    0.0000 C   0  0  0  0  0  0  0  0  0  0  0  0
   -2.3816   -0.0550    0.0000 O   0  0  0  0  0  0  0  0  0  0  0  0
   -3.0960   -0.4675    0.0000 C   0  0  0  0  0  0  0  0  0  0  0  0
    0.4763   -0.0550    0.0000 C   0  0  0  0  0  0  0  0  0  0  0  0
    1.1908   -0.4675    0.0000 C   0  0  0  0  0  0  0  0  0  0  0  0
    1.9053   -0.0550    0.0000 C   0  0  0  0  0  0  0  0  0  0  0  0
    2.6197   -0.4675    0.0000 C   0  0  0  0  0  0  0  0  0  0  0  0
    2.6197   -1.2925    0.0000 C   0  0  0  0  0  0  0  0  0  0  0  0
    1.9053   -1.7050    0.0000 C   0  0  0  0  0  0  0  0  0  0  0  0
    1.1908   -1.2925    0.0000 C   0  0  0  0  0  0  0  0  0  0  0  0
  1  2  1  0  0  0  0
  2  3  1  0  0  0  0
  3  4  2  0  0  0  0
  3  5  1  0  0  0  0
  6  5  1  0  0  0  0
  7  6  2  0  0  0  0
  8  7  1  0  0  0  0
  8  9  1  0  0  0  0
  9 10  2  0  0  0  0
  9 11  1  0  0  0  0
 11 12  1  0  0  0  0
 13 12  2  0  0  0  0
 14 13  1  0  0  0  0
 14 15  1  0  0  0  0
 16 14  2  0  0  0  0
 17 16  1  0  0  0  0
 18 17  2  0  0  0  0
 12 18  1  0  0  0  0
 18 19  1  0  0  0  0
 20  8  2  0  0  0  0
 21 20  1  0  0  0  0
  5 21  2  0  0  0  0
 22 21  1  4  0  0  0
 22 23  2  0  0  0  0
 23 24  1  0  0  0  0
 25 24  2  0  0  0  0
 25 26  1  0  0  0  0
 27 25  1  0  0  0  0
 27 28  1  0  0  0  0
 28 29  2  0  0  0  0
 28 30  1  0  0  0  0
 30 31  1  0  0  0  0
 32 31  2  0  0  0  0
 33 32  1  0  0  0  0
 34 33  2  0  0  0  0
 35 34  1  0  0  0  0
 36 35  2  0  0  0  0
 31 36  1  0  0  0  0
 36 37  1  0  0  0  0
 37 38  1  0  0  0  0
 39 27  2  0  0  0  0
 40 39  1  0  0  0  0
 40 41  1  0  0  0  0
 41 42  2  0  0  0  0
 42 43  1  0  0  0  0
 43 44  2  0  0  0  0
 44 45  1  0  0  0  0
 24 45  1  0  0  0  0
 45 40  2  0  0  0  0
M  END
> <RowID>
683

> <Original_SMILES>
COC(=O)C1C=CC(=CC=1N=NC1=C(O)C(=CC2C=CC=CC=21)C(=O)NC1=CC=CC=C1OC)C(=O)NC1=CC(Cl)=CC=C1Cl

> <Canonical_QSARr>
COC(=O)C1C=CC(=CC=1N=NC1=C(O)C(=CC2C=CC=CC=21)C(=O)NC1=CC=CC=C1OC)C(=O)NC1=CC(Cl)=CC=C1Cl

> <InChI_Code_QSARr>
InChI=1S/C33H24Cl2N4O6/c1-44-28-10-6-5-9-25(28)36-32(42)23-15-18-7-3-4-8-21(18)29(30(23)40)39-38-26-16-19(11-13-22(26)33(43)45-2)31(41)37-27-17-20(34)12-14-24(27)35/h3-17,40H,1-2H3,(H,36,42)(H,37,41)

> <InChI Key_QSARr>
MERWBGHMSXDWBM-UHFFFAOYSA-N

> <Salt_Solvent>


> <Salt_Solvent_ID>
0

> <Number of connected components>
1

$$$$
Molecule_684
  Mrv2316 01072400032D          

 25 27  0  0  0  0            999 V2000
    0.8523   -4.2731    0.0000 C   0  0  0  0  0  0  0  0  0  0  0  0
    1.3372   -3.6057    0.0000 N   0  0  0  0  0  0  0  0  0  0  0  0
    2.1577   -3.6919    0.0000 C   0  0  0  0  0  0  0  0  0  0  0  0
    2.6426   -3.0245    0.0000 N   0  0  0  0  0  0  0  0  0  0  0  0
    3.4631   -3.1107    0.0000 C   0  0  0  0  0  0  0  0  0  0  0  0
    3.7987   -3.8644    0.0000 C   0  0  0  0  0  0  0  0  0  0  0  0
    3.3138   -4.5318    0.0000 C   0  0  0  0  0  0  0  0  0  0  0  0
    3.6493   -5.2855    0.0000 C   0  0  0  0  0  0  0  0  0  0  0  0
    4.4698   -5.3717    0.0000 C   0  0  0  0  0  0  0  0  0  0  0  0
    4.9547   -4.7043    0.0000 C   0  0  0  0  0  0  0  0  0  0  0  0
    4.6192   -3.9506    0.0000 C   0  0  0  0  0  0  0  0  0  0  0  0
    2.3071   -2.2708    0.0000 C   0  0  0  0  0  0  0  0  0  0  0  0
    1.4866   -2.1846    0.0000 N   0  0  0  0  0  0  0  0  0  0  0  0
    1.1510   -1.4309    0.0000 C   0  0  0  0  0  0  0  0  0  0  0  0
    1.6360   -0.7635    0.0000 C   0  0  0  0  0  0  0  0  0  0  0  0
    2.4610   -0.7635    0.0000 C   0  0  0  0  0  0  0  0  0  0  0  0
    2.7159    0.0212    0.0000 N   0  0  0  0  0  0  0  0  0  0  0  0
    2.0485    0.5061    0.0000 C   0  0  0  0  0  0  0  0  0  0  0  0
    2.0485    1.3311    0.0000 Cl  0  0  0  0  0  0  0  0  0  0  0  0
    1.3810    0.0212    0.0000 S   0  0  0  0  0  0  0  0  0  0  0  0
    1.0017   -2.8520    0.0000 C   0  0  0  0  0  0  0  0  0  0  0  0
    0.1812   -2.7658    0.0000 N   0  0  0  0  0  0  0  0  0  0  0  0
   -0.1544   -2.0121    0.0000 N   0  3  0  0  0  0  0  0  0  0  0  0
   -0.9748   -1.9259    0.0000 O   0  5  0  0  0  0  0  0  0  0  0  0
    0.3306   -1.3447    0.0000 O   0  0  0  0  0  0  0  0  0  0  0  0
  1  2  1  0  0  0  0
  3  2  1  0  0  0  0
  4  3  1  0  0  0  0
  4  5  1  0  0  0  0
  5  6  1  0  0  0  0
  7  6  1  0  0  0  0
  8  7  2  0  0  0  0
  9  8  1  0  0  0  0
 10  9  2  0  0  0  0
 11 10  1  0  0  0  0
  6 11  2  0  0  0  0
 12  4  1  0  0  0  0
 13 12  1  0  0  0  0
 13 14  1  0  0  0  0
 14 15  1  0  0  0  0
 16 15  2  0  0  0  0
 17 16  1  0  0  0  0
 18 17  2  0  0  0  0
 18 19  1  0  0  0  0
 20 18  1  0  0  0  0
 15 20  1  0  0  0  0
 21 13  1  0  0  0  0
  2 21  1  0  0  0  0
 21 22  2  0  0  0  0
 22 23  1  4  0  0  0
 23 24  1  0  0  0  0
 23 25  2  0  0  0  0
M  CHG  2  23   1  24  -1
M  END
> <RowID>
684

> <Original_SMILES>
CN1CN(CC2C=CC=CC=2)CN(CC2=CN=C(Cl)S2)C1=N[N+]([O-])=O

> <Canonical_QSARr>
CN1CN(CC2C=CC=CC=2)CN(CC2=CN=C(Cl)S2)C1=N[N+]([O-])=O

> <InChI_Code_QSARr>
InChI=1S/C15H17ClN6O2S/c1-19-10-20(8-12-5-3-2-4-6-12)11-21(15(19)18-22(23)24)9-13-7-17-14(16)25-13/h2-7H,8-11H2,1H3

> <InChI Key_QSARr>
OSEYSJXIROSHNU-UHFFFAOYSA-N

> <Salt_Solvent>


> <Salt_Solvent_ID>
0

> <Number of connected components>
1

$$$$
Molecule_685
  Mrv2316 01072400032D          

 11 10  0  0  0  0            999 V2000
    1.0461    1.4289    0.0000 C   0  0  0  0  0  0  0  0  0  0  0  0
    1.7605    1.8414    0.0000 C   0  0  0  0  0  0  0  0  0  0  0  0
    1.7605    2.6664    0.0000 O   0  0  0  0  0  0  0  0  0  0  0  0
    2.4750    1.4289    0.0000 O   0  0  0  0  0  0  0  0  0  0  0  0
    3.1895    1.8414    0.0000 C   0  0  0  0  0  0  0  0  0  0  0  0
    3.9039    1.4289    0.0000 C   0  0  0  0  0  0  0  0  0  0  0  0
    3.9039    0.6039    0.0000 C   0  0  0  0  0  0  0  0  0  0  0  0
    4.6184    1.8414    0.0000 O   0  0  0  0  0  0  0  0  0  0  0  0
    5.3329    1.4289    0.0000 C   0  0  0  0  0  0  0  0  0  0  0  0
    6.0474    1.8414    0.0000 C   0  0  0  0  0  0  0  0  0  0  0  0
    5.3329    0.6039    0.0000 O   0  0  0  0  0  0  0  0  0  0  0  0
  1  2  1  0  0  0  0
  2  3  2  0  0  0  0
  2  4  1  0  0  0  0
  4  5  1  0  0  0  0
  5  6  1  0  0  0  0
  6  7  1  0  0  0  0
  6  8  1  0  0  0  0
  8  9  1  0  0  0  0
  9 10  1  0  0  0  0
  9 11  2  0  0  0  0
M  END
> <RowID>
685

> <Original_SMILES>
CC(=O)OCC(C)OC(C)=O

> <Canonical_QSARr>
CC(=O)OCC(C)OC(C)=O

> <InChI_Code_QSARr>
InChI=1S/C7H12O4/c1-5(11-7(3)9)4-10-6(2)8/h5H,4H2,1-3H3

> <InChI Key_QSARr>
MLHOXUWWKVQEJB-UHFFFAOYSA-N

> <Salt_Solvent>


> <Salt_Solvent_ID>
0

> <Number of connected components>
1

$$$$
Molecule_686
  Mrv2316 01072400032D          

 18 17  0  0  0  0            999 V2000
    2.9024    0.8704    0.0000 O   0  0  0  0  0  0  0  0  0  0  0  0
    3.7125    0.7145    0.0000 C   0  0  0  0  0  0  0  0  0  0  0  0
    3.9825   -0.0651    0.0000 O   0  0  0  0  0  0  0  0  0  0  0  0
    4.2526    1.3381    0.0000 C   0  0  0  0  0  0  0  0  0  0  0  0
    5.0627    1.1822    0.0000 C   0  0  0  0  0  0  0  0  0  0  0  0
    5.6028    1.8058    0.0000 C   0  0  0  0  0  0  0  0  0  0  0  0
    5.3328    2.5854    0.0000 C   0  0  0  0  0  0  0  0  0  0  0  0
    5.8729    3.2090    0.0000 O   0  0  0  0  0  0  0  0  0  0  0  0
    4.5226    2.7413    0.0000 O   0  0  0  0  0  0  0  0  0  0  0  0
    6.4129    1.6499    0.0000 N   0  0  0  0  0  0  0  0  0  0  0  0
    6.9530    2.2736    0.0000 C   0  0  0  0  0  0  0  0  0  0  0  0
    7.7632    2.1177    0.0000 C   0  0  0  0  0  0  0  0  0  0  0  0
    8.3033    2.7413    0.0000 O   0  0  0  0  0  0  0  0  0  0  0  0
    8.0332    1.3381    0.0000 O   0  0  0  0  0  0  0  0  0  0  0  0
    6.6830    0.8704    0.0000 C   0  0  0  0  0  0  0  0  0  0  0  0
    7.4931    0.7145    0.0000 C   0  0  0  0  0  0  0  0  0  0  0  0
    8.2966    0.9016    0.0000 O   0  0  0  0  0  0  0  0  0  0  0  0
    7.7632   -0.0651    0.0000 O   0  0  0  0  0  0  0  0  0  0  0  0
  1  2  1  0  0  0  0
  2  3  2  0  0  0  0
  2  4  1  0  0  0  0
  4  5  1  0  0  0  0
  5  6  1  0  0  0  0
  6  7  1  0  0  0  0
  7  8  1  0  0  0  0
  7  9  2  0  0  0  0
  6 10  1  0  0  0  0
 10 11  1  0  0  0  0
 11 12  1  0  0  0  0
 12 13  1  0  0  0  0
 12 14  2  0  0  0  0
 10 15  1  0  0  0  0
 15 16  1  0  0  0  0
 16 17  1  0  0  0  0
 16 18  2  0  0  0  0
M  END
> <RowID>
686

> <Original_SMILES>
OC(=O)CCC(C(O)=O)N(CC(O)=O)CC(O)=O

> <Canonical_QSARr>
OC(=O)CCC(C(O)=O)N(CC(O)=O)CC(O)=O

> <InChI_Code_QSARr>
InChI=1S/C9H13NO8/c11-6(12)2-1-5(9(17)18)10(3-7(13)14)4-8(15)16/h5H,1-4H2,(H,11,12)(H,13,14)(H,15,16)(H,17,18)

> <InChI Key_QSARr>
VCVKIIDXVWEWSZ-UHFFFAOYSA-N

> <Salt_Solvent>


> <Salt_Solvent_ID>
0

> <Number of connected components>
1

$$$$
Molecule_687
  Mrv2316 01072400032D          

 20 19  0  0  0  0            999 V2000
    5.3328   -2.5854    0.0000 O   0  0  0  0  0  0  0  0  0  0  0  0
    4.5226   -2.7413    0.0000 C   0  0  0  0  0  0  0  0  0  0  0  0
    4.2526   -3.5209    0.0000 O   0  0  0  0  0  0  0  0  0  0  0  0
    3.9825   -2.1177    0.0000 C   0  0  0  0  0  0  0  0  0  0  0  0
    4.2526   -1.3381    0.0000 N   0  0  0  0  0  0  0  0  0  0  0  0
    3.7125   -0.7145    0.0000 C   0  0  0  0  0  0  0  0  0  0  0  0
    2.9024   -0.8704    0.0000 C   0  0  0  0  0  0  0  0  0  0  0  0
    2.6323   -1.6499    0.0000 O   0  0  0  0  0  0  0  0  0  0  0  0
    2.3623   -0.2467    0.0000 O   0  0  0  0  0  0  0  0  0  0  0  0
    5.0627   -1.1822    0.0000 C   0  0  0  0  0  0  0  0  0  0  0  0
    5.3328   -0.4027    0.0000 C   0  0  0  0  0  0  0  0  0  0  0  0
    6.1429   -0.2467    0.0000 N   0  0  0  0  0  0  0  0  0  0  0  0
    6.4129    0.5328    0.0000 C   0  0  0  0  0  0  0  0  0  0  0  0
    5.8729    1.1564    0.0000 C   0  0  0  0  0  0  0  0  0  0  0  0
    6.1429    1.9360    0.0000 O   0  0  0  0  0  0  0  0  0  0  0  0
    5.0627    1.0005    0.0000 O   0  0  0  0  0  0  0  0  0  0  0  0
    6.6830   -0.8704    0.0000 C   0  0  0  0  0  0  0  0  0  0  0  0
    7.4931   -0.7145    0.0000 C   0  0  0  0  0  0  0  0  0  0  0  0
    7.7632    0.0651    0.0000 O   0  0  0  0  0  0  0  0  0  0  0  0
    8.0332   -1.3381    0.0000 O   0  0  0  0  0  0  0  0  0  0  0  0
  1  2  1  0  0  0  0
  2  3  2  0  0  0  0
  2  4  1  0  0  0  0
  4  5  1  0  0  0  0
  5  6  1  0  0  0  0
  6  7  1  0  0  0  0
  7  8  1  0  0  0  0
  7  9  2  0  0  0  0
  5 10  1  0  0  0  0
 10 11  1  0  0  0  0
 11 12  1  0  0  0  0
 12 13  1  0  0  0  0
 13 14  1  0  0  0  0
 14 15  1  0  0  0  0
 14 16  2  0  0  0  0
 12 17  1  0  0  0  0
 17 18  1  0  0  0  0
 18 19  1  0  0  0  0
 18 20  2  0  0  0  0
M  END
> <RowID>
687

> <Original_SMILES>
[K+].[K+].[Mn+2].[O-]C(=O)CN(CC([O-])=O)CCN(CC([O-])=O)CC([O-])=O

> <Canonical_QSARr>
OC(=O)CN(CC(O)=O)CCN(CC(O)=O)CC(O)=O

> <InChI_Code_QSARr>
InChI=1S/C10H16N2O8/c13-7(14)3-11(4-8(15)16)1-2-12(5-9(17)18)6-10(19)20/h1-6H2,(H,13,14)(H,15,16)(H,17,18)(H,19,20)

> <InChI Key_QSARr>
KCXVZYZYPLLWCC-UHFFFAOYSA-N

> <Salt_Solvent>
[K+].[Mn+2]

> <Salt_Solvent_ID>
220

> <Number of connected components>
4

$$$$
Molecule_689
  Mrv2316 01072400032D          

 27 29  0  0  0  0            999 V2000
    1.3480   -1.3480    0.0000 C   0  0  0  0  0  0  0  0  0  0  0  0
    2.0625   -0.9355    0.0000 N   0  0  0  0  0  0  0  0  0  0  0  0
    2.0625   -0.1105    0.0000 C   0  0  0  0  0  0  0  0  0  0  0  0
    2.7770   -1.3480    0.0000 C   0  0  0  0  0  0  0  0  0  0  0  0
    3.4914   -1.7605    0.0000 C   0  0  0  0  0  0  0  0  0  0  0  0
    3.4914   -2.5855    0.0000 C   0  0  0  0  0  0  0  0  0  0  0  0
    2.7770   -2.9980    0.0000 C   0  0  0  0  0  0  0  0  0  0  0  0
    2.7770   -3.8230    0.0000 C   0  0  0  0  0  0  0  0  0  0  0  0
    3.4914   -4.2355    0.0000 C   0  0  0  0  0  0  0  0  0  0  0  0
    4.2059   -3.8230    0.0000 C   0  0  0  0  0  0  0  0  0  0  0  0
    4.2059   -2.9980    0.0000 C   0  0  0  0  0  0  0  0  0  0  0  0
    2.3645   -2.0625    0.0000 C   0  0  0  0  0  0  0  0  0  0  0  0
    1.5395   -2.0625    0.0000 C   0  0  0  0  0  0  0  0  0  0  0  0
    3.1895   -0.6336    0.0000 C   0  0  0  0  0  0  0  0  0  0  0  0
    2.7770    0.0809    0.0000 O   0  0  0  0  0  0  0  0  0  0  0  0
    4.0145   -0.6336    0.0000 C   0  0  0  0  0  0  0  0  0  0  0  0
    4.4270   -1.3480    0.0000 C   0  0  0  0  0  0  0  0  0  0  0  0
    5.2520   -1.3480    0.0000 C   0  0  0  0  0  0  0  0  0  0  0  0
    5.6645   -0.6336    0.0000 C   0  0  0  0  0  0  0  0  0  0  0  0
    6.4895   -0.6336    0.0000 N   0  0  0  0  0  0  0  0  0  0  0  0
    6.9020   -1.3480    0.0000 C   0  0  0  0  0  0  0  0  0  0  0  0
    7.7270   -1.3480    0.0000 C   0  0  0  0  0  0  0  0  0  0  0  0
    8.1395   -0.6336    0.0000 O   0  0  0  0  0  0  0  0  0  0  0  0
    7.7270    0.0809    0.0000 C   0  0  0  0  0  0  0  0  0  0  0  0
    6.9020    0.0809    0.0000 C   0  0  0  0  0  0  0  0  0  0  0  0
    5.2520    0.0809    0.0000 C   0  0  0  0  0  0  0  0  0  0  0  0
    4.4270    0.0809    0.0000 C   0  0  0  0  0  0  0  0  0  0  0  0
  1  2  1  0  0  0  0
  2  3  1  0  0  0  0
  2  4  1  0  0  0  0
  4  5  1  0  0  0  0
  5  6  1  0  0  0  0
  7  6  1  0  0  0  0
  8  7  2  0  0  0  0
  9  8  1  0  0  0  0
 10  9  2  0  0  0  0
 11 10  1  0  0  0  0
  6 11  2  0  0  0  0
  4 12  1  0  0  0  0
 12 13  1  0  0  0  0
  4 14  1  0  0  0  0
 14 15  2  0  0  0  0
 14 16  1  0  0  0  0
 17 16  1  0  0  0  0
 18 17  2  0  0  0  0
 19 18  1  0  0  0  0
 19 20  1  0  0  0  0
 21 20  1  0  0  0  0
 22 21  1  0  0  0  0
 23 22  1  0  0  0  0
 24 23  1  0  0  0  0
 25 24  1  0  0  0  0
 20 25  1  0  0  0  0
 26 19  2  0  0  0  0
 27 26  1  0  0  0  0
 16 27  2  0  0  0  0
M  END
> <RowID>
689

> <Original_SMILES>
CN(C)C(CC1C=CC=CC=1)(CC)C(=O)C1C=CC(=CC=1)N1CCOCC1

> <Canonical_QSARr>
CN(C)C(CC1C=CC=CC=1)(CC)C(=O)C1C=CC(=CC=1)N1CCOCC1

> <InChI_Code_QSARr>
InChI=1S/C23H30N2O2/c1-4-23(24(2)3,18-19-8-6-5-7-9-19)22(26)20-10-12-21(13-11-20)25-14-16-27-17-15-25/h5-13H,4,14-18H2,1-3H3

> <InChI Key_QSARr>
UHFFVFAKEGKNAQ-UHFFFAOYSA-N

> <Salt_Solvent>


> <Salt_Solvent_ID>
0

> <Number of connected components>
1

$$$$
Molecule_690
  Mrv2316 01072400032D          

 13 12  0  0  0  0            999 V2000
    4.4270   -1.7309    0.0000 C   0  0  0  0  0  0  0  0  0  0  0  0
    3.7125   -2.1434    0.0000 N   0  3  0  0  0  0  0  0  0  0  0  0
    2.9980   -2.5559    0.0000 C   0  0  0  0  0  0  0  0  0  0  0  0
    4.1250   -2.8579    0.0000 C   0  0  0  0  0  0  0  0  0  0  0  0
    4.9500   -2.8579    0.0000 C   0  0  0  0  0  0  0  0  0  0  0  0
    5.3625   -3.5724    0.0000 O   0  5  0  0  0  0  0  0  0  0  0  0
    5.3625   -2.1434    0.0000 O   0  0  0  0  0  0  0  0  0  0  0  0
    3.3000   -1.4289    0.0000 C   0  0  0  0  0  0  0  0  0  0  0  0
    2.4750   -1.4289    0.0000 C   0  0  0  0  0  0  0  0  0  0  0  0
    2.0625   -0.7145    0.0000 C   0  0  0  0  0  0  0  0  0  0  0  0
    1.2375   -0.7145    0.0000 N   0  0  0  0  0  0  0  0  0  0  0  0
    0.8250   -0.0000    0.0000 C   0  0  0  0  0  0  0  0  0  0  0  0
    0.0000   -0.0000    0.0000 O   0  0  0  0  0  0  0  0  0  0  0  0
  1  2  1  0  0  0  0
  2  3  1  0  0  0  0
  2  4  1  0  0  0  0
  4  5  1  0  0  0  0
  5  6  1  0  0  0  0
  5  7  2  0  0  0  0
  2  8  1  0  0  0  0
  8  9  1  0  0  0  0
  9 10  1  0  0  0  0
 10 11  1  0  0  0  0
 11 12  1  0  0  0  0
 12 13  2  0  0  0  0
M  CHG  2   2   1   6  -1
M  END
> <RowID>
690

> <Original_SMILES>
C[N+](C)(CC([O-])=O)CCCNC=O

> <Canonical_QSARr>
C[N+](C)(CC([O-])=O)CCCNC=O

> <InChI_Code_QSARr>
InChI=1S/C8H16N2O3/c1-10(2,6-8(12)13)5-3-4-9-7-11/h7H,3-6H2,1-2H3,(H-,9,11,12,13)

> <InChI Key_QSARr>
BQNMPOILUKKBCZ-UHFFFAOYSA-N

> <Salt_Solvent>


> <Salt_Solvent_ID>
0

> <Number of connected components>
1

$$$$
Molecule_691
  Mrv2316 01072400032D          

 23 24  0  0  0  0            999 V2000
    2.0317   -4.4665    0.0000 C   0  0  0  0  0  0  0  0  0  0  0  0
    1.5468   -3.7991    0.0000 C   0  0  0  0  0  0  0  0  0  0  0  0
    1.8017   -3.0145    0.0000 O   0  0  0  0  0  0  0  0  0  0  0  0
    1.1343   -2.5295    0.0000 C   0  0  0  0  0  0  0  0  0  0  0  0
    1.1343   -1.7045    0.0000 N   0  0  0  0  0  0  0  0  0  0  0  0
    1.8488   -1.2920    0.0000 C   0  0  0  0  0  0  0  0  0  0  0  0
    1.8488   -0.4670    0.0000 C   0  0  0  0  0  0  0  0  0  0  0  0
    2.5632   -0.0545    0.0000 F   0  0  0  0  0  0  0  0  0  0  0  0
    1.1343   -0.0545    0.0000 C   0  0  0  0  0  0  0  0  0  0  0  0
    1.1343    0.7705    0.0000 N   0  0  0  0  0  0  0  0  0  0  0  0
    0.4198   -0.4670    0.0000 N   0  0  0  0  0  0  0  0  0  0  0  0
    0.4198   -1.2920    0.0000 C   0  0  0  0  0  0  0  0  0  0  0  0
   -0.2947   -1.7045    0.0000 O   0  0  0  0  0  0  0  0  0  0  0  0
    0.4669   -3.0145    0.0000 C   0  0  0  0  0  0  0  0  0  0  0  0
   -0.3178   -2.7595    0.0000 O   0  0  0  0  0  0  0  0  0  0  0  0
   -0.9309   -3.3116    0.0000 C   0  0  0  0  0  0  0  0  0  0  0  0
   -0.7593   -4.1185    0.0000 C   0  0  0  0  0  0  0  0  0  0  0  0
   -1.7155   -3.0566    0.0000 O   0  0  0  0  0  0  0  0  0  0  0  0
    0.7218   -3.7991    0.0000 C   0  0  0  0  0  0  0  0  0  0  0  0
    0.2369   -4.4665    0.0000 O   0  0  0  0  0  0  0  0  0  0  0  0
    0.5724   -5.2202    0.0000 C   0  0  0  0  0  0  0  0  0  0  0  0
    0.0875   -5.8876    0.0000 C   0  0  0  0  0  0  0  0  0  0  0  0
    1.3929   -5.3064    0.0000 O   0  0  0  0  0  0  0  0  0  0  0  0
  1  2  1  0  0  0  0
  3  2  1  0  0  0  0
  4  3  1  0  0  0  0
  4  5  1  0  0  0  0
  6  5  1  0  0  0  0
  7  6  2  0  0  0  0
  7  8  1  0  0  0  0
  9  7  1  0  0  0  0
  9 10  1  0  0  0  0
 11  9  2  0  0  0  0
 12 11  1  0  0  0  0
  5 12  1  0  0  0  0
 12 13  2  0  0  0  0
 14  4  1  0  0  0  0
 14 15  1  0  0  0  0
 15 16  1  0  0  0  0
 16 17  1  0  0  0  0
 16 18  2  0  0  0  0
 19 14  1  0  0  0  0
  2 19  1  0  0  0  0
 19 20  1  0  0  0  0
 20 21  1  0  0  0  0
 21 22  1  0  0  0  0
 21 23  2  0  0  0  0
M  END
> <RowID>
691

> <Original_SMILES>
CC1OC(C(OC(C)=O)C1OC(C)=O)N1C=C(F)C(N)=NC1=O

> <Canonical_QSARr>
CC1OC(C(OC(C)=O)C1OC(C)=O)N1C=C(F)C(N)=NC1=O

> <InChI_Code_QSARr>
InChI=1S/C13H16FN3O6/c1-5-9(22-6(2)18)10(23-7(3)19)12(21-5)17-4-8(14)11(15)16-13(17)20/h4-5,9-10,12H,1-3H3,(H2,15,16,20)

> <InChI Key_QSARr>
NWJBWNIUGNXJGO-UHFFFAOYSA-N

> <Salt_Solvent>


> <Salt_Solvent_ID>
0

> <Number of connected components>
1

$$$$
Molecule_692
  Mrv2316 01072400032D          

 35 36  0  0  0  0            999 V2000
   -2.1068    3.7759    0.0000 C   0  0  0  0  0  0  0  0  0  0  0  0
   -1.6943    4.4904    0.0000 C   0  0  0  0  0  0  0  0  0  0  0  0
   -1.2818    5.2048    0.0000 C   0  0  0  0  0  0  0  0  0  0  0  0
   -2.4088    4.9029    0.0000 C   0  0  0  0  0  0  0  0  0  0  0  0
   -2.4088    5.7279    0.0000 C   0  0  0  0  0  0  0  0  0  0  0  0
   -3.1233    6.1404    0.0000 C   0  0  0  0  0  0  0  0  0  0  0  0
   -3.8377    5.7279    0.0000 C   0  0  0  0  0  0  0  0  0  0  0  0
   -4.5522    6.1404    0.0000 O   0  0  0  0  0  0  0  0  0  0  0  0
   -5.2667    5.7279    0.0000 C   0  0  0  0  0  0  0  0  0  0  0  0
   -5.9811    6.1404    0.0000 C   0  0  0  0  0  0  0  0  0  0  0  0
   -6.6956    5.7279    0.0000 C   0  0  0  0  0  0  0  0  0  0  0  0
   -7.4101    6.1404    0.0000 O   0  0  0  0  0  0  0  0  0  0  0  0
   -8.1246    5.7279    0.0000 C   0  0  0  0  0  0  0  0  0  0  0  0
   -8.1246    4.9029    0.0000 O   0  0  0  0  0  0  0  0  0  0  0  0
   -8.8390    6.1404    0.0000 C   0  0  0  0  0  0  0  0  0  0  0  0
   -9.5535    5.7279    0.0000 C   0  0  0  0  0  0  0  0  0  0  0  0
   -8.8390    6.9654    0.0000 C   0  0  0  0  0  0  0  0  0  0  0  0
   -3.8377    4.9029    0.0000 C   0  0  0  0  0  0  0  0  0  0  0  0
   -3.1233    4.4904    0.0000 C   0  0  0  0  0  0  0  0  0  0  0  0
   -0.9799    4.0779    0.0000 C   0  0  0  0  0  0  0  0  0  0  0  0
   -0.9799    3.2529    0.0000 C   0  0  0  0  0  0  0  0  0  0  0  0
   -0.2654    2.8404    0.0000 C   0  0  0  0  0  0  0  0  0  0  0  0
    0.4491    3.2529    0.0000 C   0  0  0  0  0  0  0  0  0  0  0  0
    1.1636    2.8404    0.0000 O   0  0  0  0  0  0  0  0  0  0  0  0
    1.8780    3.2529    0.0000 C   0  0  0  0  0  0  0  0  0  0  0  0
    2.5925    2.8404    0.0000 C   0  0  0  0  0  0  0  0  0  0  0  0
    3.3070    3.2529    0.0000 C   0  0  0  0  0  0  0  0  0  0  0  0
    4.0214    2.8404    0.0000 O   0  0  0  0  0  0  0  0  0  0  0  0
    4.7359    3.2529    0.0000 C   0  0  0  0  0  0  0  0  0  0  0  0
    4.7359    4.0779    0.0000 O   0  0  0  0  0  0  0  0  0  0  0  0
    5.4504    2.8404    0.0000 C   0  0  0  0  0  0  0  0  0  0  0  0
    6.1649    3.2529    0.0000 C   0  0  0  0  0  0  0  0  0  0  0  0
    5.4504    2.0154    0.0000 C   0  0  0  0  0  0  0  0  0  0  0  0
    0.4491    4.0779    0.0000 C   0  0  0  0  0  0  0  0  0  0  0  0
   -0.2654    4.4904    0.0000 C   0  0  0  0  0  0  0  0  0  0  0  0
  1  2  1  0  0  0  0
  2  3  1  0  0  0  0
  2  4  1  0  0  0  0
  5  4  1  0  0  0  0
  6  5  2  0  0  0  0
  7  6  1  0  0  0  0
  7  8  1  0  0  0  0
  8  9  1  0  0  0  0
  9 10  1  0  0  0  0
 10 11  1  0  0  0  0
 11 12  1  0  0  0  0
 12 13  1  0  0  0  0
 13 14  2  0  0  0  0
 13 15  1  0  0  0  0
 15 16  1  0  0  0  0
 15 17  2  0  0  0  0
 18  7  2  0  0  0  0
 19 18  1  0  0  0  0
  4 19  2  0  0  0  0
  2 20  1  0  0  0  0
 21 20  1  0  0  0  0
 22 21  2  0  0  0  0
 23 22  1  0  0  0  0
 23 24  1  0  0  0  0
 24 25  1  0  0  0  0
 25 26  1  0  0  0  0
 26 27  1  0  0  0  0
 27 28  1  0  0  0  0
 28 29  1  0  0  0  0
 29 30  2  0  0  0  0
 29 31  1  0  0  0  0
 31 32  1  0  0  0  0
 31 33  2  0  0  0  0
 34 23  2  0  0  0  0
 35 34  1  0  0  0  0
 20 35  2  0  0  0  0
M  END
> <RowID>
692

> <Original_SMILES>
CC(C)(C1C=CC(=CC=1)OCCCOC(=O)C(C)=C)C1C=CC(=CC=1)OCCCOC(=O)C(C)=C

> <Canonical_QSARr>
CC(C)(C1C=CC(=CC=1)OCCCOC(=O)C(C)=C)C1C=CC(=CC=1)OCCCOC(=O)C(C)=C

> <InChI_Code_QSARr>
InChI=1S/C29H36O6/c1-21(2)27(30)34-19-7-17-32-25-13-9-23(10-14-25)29(5,6)24-11-15-26(16-12-24)33-18-8-20-35-28(31)22(3)4/h9-16H,1,3,7-8,17-20H2,2,4-6H3

> <InChI Key_QSARr>
OPZLDVPRAIERSE-UHFFFAOYSA-N

> <Salt_Solvent>


> <Salt_Solvent_ID>
0

> <Number of connected components>
1

$$$$
Molecule_693
  Mrv2316 01072400032D          

 86 92  0  0  0  0            999 V2000
   17.3440    0.4125    0.0000 C   0  0  0  0  0  0  0  0  0  0  0  0
   16.5644    0.1425    0.0000 C   0  0  0  0  0  0  0  0  0  0  0  0
   16.2944    0.9220    0.0000 C   0  0  0  0  0  0  0  0  0  0  0  0
   16.8345   -0.6371    0.0000 C   0  0  0  0  0  0  0  0  0  0  0  0
   15.7849   -0.1276    0.0000 C   0  0  0  0  0  0  0  0  0  0  0  0
   15.1612    0.4125    0.0000 C   0  0  0  0  0  0  0  0  0  0  0  0
   15.7013    1.0361    0.0000 C   0  0  0  0  0  0  0  0  0  0  0  0
   14.6211   -0.2111    0.0000 C   0  0  0  0  0  0  0  0  0  0  0  0
   14.5376    0.9526    0.0000 N   0  0  0  0  0  0  0  0  0  0  0  0
   13.7580    0.6825    0.0000 C   0  0  0  0  0  0  0  0  0  0  0  0
   13.1344    1.2226    0.0000 N   0  0  0  0  0  0  0  0  0  0  0  0
   12.3548    0.9526    0.0000 C   0  0  0  0  0  0  0  0  0  0  0  0
   12.1989    0.1425    0.0000 N   0  0  0  0  0  0  0  0  0  0  0  0
   12.8226   -0.3976    0.0000 C   0  0  0  0  0  0  0  0  0  0  0  0
   12.6667   -1.2078    0.0000 N   0  0  0  0  0  0  0  0  0  0  0  0
   11.8871   -1.4778    0.0000 C   0  0  0  0  0  0  0  0  0  0  0  0
   11.2635   -0.9377    0.0000 C   0  0  0  0  0  0  0  0  0  0  0  0
   10.4839   -1.2078    0.0000 C   0  0  0  0  0  0  0  0  0  0  0  0
    9.8603   -0.6677    0.0000 C   0  0  0  0  0  0  0  0  0  0  0  0
    9.0807   -0.9377    0.0000 C   0  0  0  0  0  0  0  0  0  0  0  0
    8.4571   -0.3976    0.0000 C   0  0  0  0  0  0  0  0  0  0  0  0
    7.6775   -0.6677    0.0000 N   0  0  0  0  0  0  0  0  0  0  0  0
    7.5216   -1.4778    0.0000 C   0  0  0  0  0  0  0  0  0  0  0  0
    6.7421   -1.7479    0.0000 C   0  0  0  0  0  0  0  0  0  0  0  0
    6.5862   -2.5580    0.0000 C   0  0  0  0  0  0  0  0  0  0  0  0
    5.8154   -2.2638    0.0000 C   0  0  0  0  0  0  0  0  0  0  0  0
    6.1626   -3.2659    0.0000 C   0  0  0  0  0  0  0  0  0  0  0  0
    7.2098   -3.0981    0.0000 N   0  0  0  0  0  0  0  0  0  0  0  0
    7.9893   -2.8280    0.0000 C   0  0  0  0  0  0  0  0  0  0  0  0
    8.1199   -3.6426    0.0000 C   0  0  0  0  0  0  0  0  0  0  0  0
    8.8142   -2.8409    0.0000 C   0  0  0  0  0  0  0  0  0  0  0  0
    8.1453   -2.0179    0.0000 C   0  0  0  0  0  0  0  0  0  0  0  0
    7.0539   -0.1276    0.0000 C   0  0  0  0  0  0  0  0  0  0  0  0
    6.2743   -0.3976    0.0000 N   0  0  0  0  0  0  0  0  0  0  0  0
    5.6507    0.1425    0.0000 C   0  0  0  0  0  0  0  0  0  0  0  0
    4.8711   -0.1276    0.0000 N   0  0  0  0  0  0  0  0  0  0  0  0
    4.2475    0.4125    0.0000 C   0  0  0  0  0  0  0  0  0  0  0  0
    4.7876    1.0361    0.0000 C   0  0  0  0  0  0  0  0  0  0  0  0
    3.7074   -0.2111    0.0000 C   0  0  0  0  0  0  0  0  0  0  0  0
    3.6239    0.9526    0.0000 C   0  0  0  0  0  0  0  0  0  0  0  0
    2.8443    0.6825    0.0000 C   0  0  0  0  0  0  0  0  0  0  0  0
    2.0648    0.4125    0.0000 C   0  0  0  0  0  0  0  0  0  0  0  0
    2.5743    1.4621    0.0000 C   0  0  0  0  0  0  0  0  0  0  0  0
    3.1143   -0.0970    0.0000 C   0  0  0  0  0  0  0  0  0  0  0  0
    5.8066    0.9526    0.0000 N   0  0  0  0  0  0  0  0  0  0  0  0
    6.5862    1.2226    0.0000 C   0  0  0  0  0  0  0  0  0  0  0  0
    6.7421    2.0328    0.0000 N   0  0  0  0  0  0  0  0  0  0  0  0
    7.5216    2.3028    0.0000 C   0  0  0  0  0  0  0  0  0  0  0  0
    8.1453    1.7627    0.0000 C   0  0  0  0  0  0  0  0  0  0  0  0
    8.9248    2.0328    0.0000 C   0  0  0  0  0  0  0  0  0  0  0  0
    9.5485    1.4927    0.0000 C   0  0  0  0  0  0  0  0  0  0  0  0
   10.3280    1.7627    0.0000 C   0  0  0  0  0  0  0  0  0  0  0  0
   10.9516    1.2226    0.0000 C   0  0  0  0  0  0  0  0  0  0  0  0
   11.7312    1.4927    0.0000 N   0  0  0  0  0  0  0  0  0  0  0  0
   11.8871    2.3028    0.0000 C   0  0  0  0  0  0  0  0  0  0  0  0
   12.6667    2.5729    0.0000 C   0  0  0  0  0  0  0  0  0  0  0  0
   12.8226    3.3830    0.0000 C   0  0  0  0  0  0  0  0  0  0  0  0
   13.5933    3.0888    0.0000 C   0  0  0  0  0  0  0  0  0  0  0  0
   13.2462    4.0909    0.0000 C   0  0  0  0  0  0  0  0  0  0  0  0
   12.1989    3.9231    0.0000 N   0  0  0  0  0  0  0  0  0  0  0  0
   11.4194    3.6530    0.0000 C   0  0  0  0  0  0  0  0  0  0  0  0
   11.2888    4.4676    0.0000 C   0  0  0  0  0  0  0  0  0  0  0  0
   10.5945    3.6659    0.0000 C   0  0  0  0  0  0  0  0  0  0  0  0
   11.2635    2.8429    0.0000 C   0  0  0  0  0  0  0  0  0  0  0  0
    6.1184    2.5729    0.0000 C   0  0  0  0  0  0  0  0  0  0  0  0
    6.2743    3.3830    0.0000 C   0  0  0  0  0  0  0  0  0  0  0  0
    5.6507    3.9231    0.0000 C   0  0  0  0  0  0  0  0  0  0  0  0
    6.2909    4.4435    0.0000 C   0  0  0  0  0  0  0  0  0  0  0  0
    5.2494    4.6439    0.0000 C   0  0  0  0  0  0  0  0  0  0  0  0
    4.8711    3.6530    0.0000 N   0  0  0  0  0  0  0  0  0  0  0  0
    4.7152    2.8429    0.0000 C   0  0  0  0  0  0  0  0  0  0  0  0
    3.9445    3.1371    0.0000 C   0  0  0  0  0  0  0  0  0  0  0  0
    4.2916    2.1350    0.0000 C   0  0  0  0  0  0  0  0  0  0  0  0
    5.3389    2.3028    0.0000 C   0  0  0  0  0  0  0  0  0  0  0  0
    7.2098    0.6825    0.0000 N   0  0  0  0  0  0  0  0  0  0  0  0
   13.2903   -1.7479    0.0000 C   0  0  0  0  0  0  0  0  0  0  0  0
   13.1344   -2.5580    0.0000 C   0  0  0  0  0  0  0  0  0  0  0  0
   13.7580   -3.0981    0.0000 C   0  0  0  0  0  0  0  0  0  0  0  0
   13.1179   -3.6185    0.0000 C   0  0  0  0  0  0  0  0  0  0  0  0
   14.1593   -3.8189    0.0000 C   0  0  0  0  0  0  0  0  0  0  0  0
   14.5376   -2.8280    0.0000 N   0  0  0  0  0  0  0  0  0  0  0  0
   14.6935   -2.0179    0.0000 C   0  0  0  0  0  0  0  0  0  0  0  0
   15.4642   -2.3121    0.0000 C   0  0  0  0  0  0  0  0  0  0  0  0
   15.1171   -1.3099    0.0000 C   0  0  0  0  0  0  0  0  0  0  0  0
   14.0699   -1.4778    0.0000 C   0  0  0  0  0  0  0  0  0  0  0  0
   13.6021   -0.1276    0.0000 N   0  0  0  0  0  0  0  0  0  0  0  0
  1  2  1  0  0  0  0
  2  3  1  0  0  0  0
  2  4  1  0  0  0  0
  2  5  1  0  0  0  0
  5  6  1  0  0  0  0
  6  7  1  0  0  0  0
  6  8  1  0  0  0  0
  6  9  1  0  0  0  0
  9 10  1  0  0  0  0
 11 10  1  0  0  0  0
 12 11  2  0  0  0  0
 12 13  1  0  0  0  0
 13 14  2  0  0  0  0
 14 15  1  0  0  0  0
 15 16  1  0  0  0  0
 16 17  1  0  0  0  0
 17 18  1  0  0  0  0
 18 19  1  0  0  0  0
 19 20  1  0  0  0  0
 20 21  1  0  0  0  0
 21 22  1  0  0  0  0
 22 23  1  0  0  0  0
 24 23  1  0  0  0  0
 25 24  1  0  0  0  0
 25 26  1  0  0  0  0
 25 27  1  0  0  0  0
 28 25  1  0  0  0  0
 29 28  1  0  0  0  0
 29 30  1  0  0  0  0
 29 31  1  0  0  0  0
 32 29  1  0  0  0  0
 23 32  1  0  0  0  0
 22 33  1  0  0  0  0
 34 33  1  0  0  0  0
 35 34  2  0  0  0  0
 35 36  1  0  0  0  0
 36 37  1  0  0  0  0
 37 38  1  0  0  0  0
 37 39  1  0  0  0  0
 37 40  1  0  0  0  0
 40 41  1  0  0  0  0
 41 42  1  0  0  0  0
 41 43  1  0  0  0  0
 41 44  1  0  0  0  0
 45 35  1  0  0  0  0
 46 45  2  0  0  0  0
 46 47  1  0  0  0  0
 47 48  1  0  0  0  0
 48 49  1  0  0  0  0
 49 50  1  0  0  0  0
 50 51  1  0  0  0  0
 51 52  1  0  0  0  0
 52 53  1  0  0  0  0
 53 54  1  0  0  0  0
 54 12  1  0  0  0  0
 54 55  1  0  0  0  0
 56 55  1  0  0  0  0
 57 56  1  0  0  0  0
 57 58  1  0  0  0  0
 57 59  1  0  0  0  0
 60 57  1  0  0  0  0
 61 60  1  0  0  0  0
 61 62  1  0  0  0  0
 61 63  1  0  0  0  0
 64 61  1  0  0  0  0
 55 64  1  0  0  0  0
 47 65  1  0  0  0  0
 66 65  1  0  0  0  0
 67 66  1  0  0  0  0
 67 68  1  0  0  0  0
 67 69  1  0  0  0  0
 70 67  1  0  0  0  0
 71 70  1  0  0  0  0
 71 72  1  0  0  0  0
 71 73  1  0  0  0  0
 74 71  1  0  0  0  0
 65 74  1  0  0  0  0
 75 46  1  0  0  0  0
 33 75  2  0  0  0  0
 15 76  1  0  0  0  0
 77 76  1  0  0  0  0
 78 77  1  0  0  0  0
 78 79  1  0  0  0  0
 78 80  1  0  0  0  0
 81 78  1  0  0  0  0
 82 81  1  0  0  0  0
 82 83  1  0  0  0  0
 82 84  1  0  0  0  0
 85 82  1  0  0  0  0
 76 85  1  0  0  0  0
 86 14  1  0  0  0  0
 10 86  2  0  0  0  0
M  END
> <RowID>
693

> <Original_SMILES>
CC(C)(C)CC(C)(C)NC1N=C2N=C(N=1)N(CCCCCCN(C1CC(C)(C)NC(C)(C)C1)C1N=C(NC(C)(C)CC(C)(C)C)N=C(N=1)N(CCCCCCN2C1CC(C)(C)NC(C)(C)C1)C1CC(C)(C)NC(C)(C)C1)C1CC(C)(C)NC(C)(C)C1

> <Canonical_QSARr>
CC(C)(C)CC(C)(C)NC1N=C2N=C(N=1)N(CCCCCCN(C1CC(C)(C)NC(C)(C)C1)C1N=C(NC(C)(C)CC(C)(C)C)N=C(N=1)N(CCCCCCN2C1CC(C)(C)NC(C)(C)C1)C1CC(C)(C)NC(C)(C)C1)C1CC(C)(C)NC(C)(C)C1

> <InChI_Code_QSARr>
InChI=1S/C70H132N16/c1-59(2,3)47-69(23,24)77-53-71-55-75-56(72-53)84(50-41-63(11,12)80-64(13,14)42-50)36-32-28-30-34-38-86(52-45-67(19,20)82-68(21,22)46-52)58-74-54(78-70(25,26)48-60(4,5)6)73-57(76-58)85(51-43-65(15,16)81-66(17,18)44-51)37-33-29-27-31-35-83(55)49-39-61(7,8)79-62(9,10)40-49/h49-52,79-82H,27-48H2,1-26H3,(H,71,72,75,77)(H,73,74,76,78)

> <InChI Key_QSARr>
QMXSCDIANZDPCU-UHFFFAOYSA-N

> <Salt_Solvent>


> <Salt_Solvent_ID>
0

> <Number of connected components>
1

$$$$
Molecule_694
  Mrv2316 01072400032D          

 19 19  0  0  0  0            999 V2000
   -5.0013    6.1875    0.0000 C   0  0  0  0  0  0  0  0  0  0  0  0
   -4.2868    5.7750    0.0000 C   0  0  0  0  0  0  0  0  0  0  0  0
   -4.2868    4.9500    0.0000 C   0  0  0  0  0  0  0  0  0  0  0  0
   -3.5723    4.5375    0.0000 C   0  0  0  0  0  0  0  0  0  0  0  0
   -2.8579    4.9500    0.0000 C   0  0  0  0  0  0  0  0  0  0  0  0
   -2.1434    4.5375    0.0000 S   0  0  0  0  0  0  0  0  0  0  0  0
   -2.5559    3.8230    0.0000 O   0  0  0  0  0  0  0  0  0  0  0  0
   -1.7309    5.2520    0.0000 O   0  0  0  0  0  0  0  0  0  0  0  0
   -1.4289    4.1250    0.0000 N   0  0  0  0  0  0  0  0  0  0  0  0
   -0.7145    4.5375    0.0000 C   0  0  0  0  0  0  0  0  0  0  0  0
    0.0000    4.1250    0.0000 C   0  0  0  0  0  0  0  0  0  0  0  0
    0.7145    4.5375    0.0000 C   0  0  0  0  0  0  0  0  0  0  0  0
    1.4290    4.1250    0.0000 C   0  0  0  0  0  0  0  0  0  0  0  0
    2.1434    4.5375    0.0000 C   0  0  0  0  0  0  0  0  0  0  0  0
    2.8579    4.1250    0.0000 C   0  0  0  0  0  0  0  0  0  0  0  0
    3.5724    4.5375    0.0000 O   0  0  0  0  0  0  0  0  0  0  0  0
    2.8579    3.3000    0.0000 O   0  0  0  0  0  0  0  0  0  0  0  0
   -2.8579    5.7750    0.0000 C   0  0  0  0  0  0  0  0  0  0  0  0
   -3.5723    6.1875    0.0000 C   0  0  0  0  0  0  0  0  0  0  0  0
  1  2  1  0  0  0  0
  3  2  2  0  0  0  0
  4  3  1  0  0  0  0
  5  4  2  0  0  0  0
  5  6  1  0  0  0  0
  6  7  2  0  0  0  0
  6  8  2  0  0  0  0
  6  9  1  0  0  0  0
  9 10  1  0  0  0  0
 10 11  1  0  0  0  0
 11 12  1  0  0  0  0
 12 13  1  0  0  0  0
 13 14  1  0  0  0  0
 14 15  1  0  0  0  0
 15 16  1  0  0  0  0
 15 17  2  0  0  0  0
 18  5  1  0  0  0  0
 19 18  2  0  0  0  0
  2 19  1  0  0  0  0
M  END
> <RowID>
694

> <Original_SMILES>
CC1=CC=C(C=C1)S(=O)(=O)NCCCCCC(O)=O

> <Canonical_QSARr>
CC1=CC=C(C=C1)S(=O)(=O)NCCCCCC(O)=O

> <InChI_Code_QSARr>
InChI=1S/C13H19NO4S/c1-11-6-8-12(9-7-11)19(17,18)14-10-4-2-3-5-13(15)16/h6-9,14H,2-5,10H2,1H3,(H,15,16)

> <InChI Key_QSARr>
GLKZGJGPYOFPKV-UHFFFAOYSA-N

> <Salt_Solvent>


> <Salt_Solvent_ID>
0

> <Number of connected components>
1

$$$$
Molecule_695
  Mrv2316 01072400032D          

 21 20  0  0  0  0            999 V2000
    8.4711    5.7158    0.0000 C   0  0  0  0  0  0  0  0  0  0  0  0
    9.1855    6.1283    0.0000 C   0  0  0  0  0  0  0  0  0  0  0  0
    9.9000    5.7158    0.0000 C   0  0  0  0  0  0  0  0  0  0  0  0
   10.6145    6.1283    0.0000 C   0  0  0  0  0  0  0  0  0  0  0  0
   11.3289    5.7158    0.0000 C   0  0  0  0  0  0  0  0  0  0  0  0
   12.0434    6.1283    0.0000 C   0  0  0  0  0  0  0  0  0  0  0  0
   12.7579    5.7158    0.0000 C   0  0  0  0  0  0  0  0  0  0  0  0
   13.4724    6.1283    0.0000 C   0  0  0  0  0  0  0  0  0  0  0  0
   14.1868    5.7158    0.0000 C   0  0  0  0  0  0  0  0  0  0  0  0
   14.9013    6.1283    0.0000 C   0  0  0  0  0  0  0  0  0  0  0  0
   15.6158    5.7158    0.0000 C   0  0  0  0  0  0  0  0  0  0  0  0
   16.3302    6.1283    0.0000 C   0  0  0  0  0  0  0  0  0  0  0  0
   17.0447    5.7158    0.0000 C   0  0  0  0  0  0  0  0  0  0  0  0
   17.7592    6.1283    0.0000 C   0  0  0  0  0  0  0  0  0  0  0  0
   18.4736    5.7158    0.0000 C   0  0  0  0  0  0  0  0  0  0  0  0
   19.1881    6.1283    0.0000 C   0  0  0  0  0  0  0  0  0  0  0  0
   19.9026    5.7158    0.0000 C   0  0  0  0  0  0  0  0  0  0  0  0
   20.6171    6.1283    0.0000 C   0  0  0  0  0  0  0  0  0  0  0  0
   21.3315    5.7158    0.0000 N   0  0  0  0  0  0  0  0  0  0  0  0
   22.0460    6.1283    0.0000 C   0  0  0  0  0  0  0  0  0  0  0  0
   21.3315    4.8908    0.0000 C   0  0  0  0  0  0  0  0  0  0  0  0
  1  2  1  0  0  0  0
  2  3  1  0  0  0  0
  3  4  1  0  0  0  0
  4  5  1  0  0  0  0
  5  6  1  0  0  0  0
  6  7  1  0  0  0  0
  7  8  1  0  0  0  0
  8  9  1  0  0  0  0
  9 10  1  0  0  0  0
 10 11  1  0  0  0  0
 11 12  1  0  0  0  0
 12 13  1  0  0  0  0
 13 14  1  0  0  0  0
 14 15  1  0  0  0  0
 15 16  1  0  0  0  0
 16 17  1  0  0  0  0
 17 18  1  0  0  0  0
 18 19  1  0  0  0  0
 19 20  1  0  0  0  0
 19 21  1  0  0  0  0
M  END
> <RowID>
695

> <Original_SMILES>
CCCCCCCCCCCCCCCCCCN(C)C

> <Canonical_QSARr>
CCCCCCCCCCCCCCCCCCN(C)C

> <InChI_Code_QSARr>
InChI=1S/C20H43N/c1-4-5-6-7-8-9-10-11-12-13-14-15-16-17-18-19-20-21(2)3/h4-20H2,1-3H3

> <InChI Key_QSARr>
NAPSCFZYZVSQHF-UHFFFAOYSA-N

> <Salt_Solvent>


> <Salt_Solvent_ID>
0

> <Number of connected components>
1

$$$$
Molecule_697
  Mrv2316 01072400032D          

 31 34  0  0  0  0            999 V2000
    2.2831   -4.5805    0.0000 C   0  0  0  0  0  0  0  0  0  0  0  0
    1.5687   -4.1680    0.0000 C   0  0  0  0  0  0  0  0  0  0  0  0
    1.5687   -3.3430    0.0000 C   0  0  0  0  0  0  0  0  0  0  0  0
    0.8542   -2.9305    0.0000 C   0  0  0  0  0  0  0  0  0  0  0  0
    0.8542   -2.1055    0.0000 C   0  0  0  0  0  0  0  0  0  0  0  0
    1.5687   -1.6930    0.0000 C   0  0  0  0  0  0  0  0  0  0  0  0
    2.2831   -2.1055    0.0000 C   0  0  0  0  0  0  0  0  0  0  0  0
    2.9976   -1.6930    0.0000 C   0  0  0  0  0  0  0  0  0  0  0  0
    3.7121   -2.1055    0.0000 C   0  0  0  0  0  0  0  0  0  0  0  0
    2.9976   -0.8680    0.0000 C   0  0  0  0  0  0  0  0  0  0  0  0
    2.2831   -0.4555    0.0000 C   0  0  0  0  0  0  0  0  0  0  0  0
    2.2831    0.3695    0.0000 C   0  0  0  0  0  0  0  0  0  0  0  0
    1.4707    0.2262    0.0000 C   0  0  0  0  0  0  0  0  0  0  0  0
    3.0956    0.2262    0.0000 C   0  0  0  0  0  0  0  0  0  0  0  0
    3.6259    0.8582    0.0000 C   0  0  0  0  0  0  0  0  0  0  0  0
    3.3437    1.6334    0.0000 C   0  0  0  0  0  0  0  0  0  0  0  0
    2.5313    1.7767    0.0000 C   0  0  0  0  0  0  0  0  0  0  0  0
    2.0010    1.1447    0.0000 C   0  0  0  0  0  0  0  0  0  0  0  0
    1.5687   -0.8680    0.0000 C   0  0  0  0  0  0  0  0  0  0  0  0
    0.8542   -0.4555    0.0000 O   0  0  0  0  0  0  0  0  0  0  0  0
    0.1397   -3.3430    0.0000 C   0  0  0  0  0  0  0  0  0  0  0  0
   -0.5747   -2.9305    0.0000 O   0  0  0  0  0  0  0  0  0  0  0  0
    0.1397   -4.1680    0.0000 C   0  0  0  0  0  0  0  0  0  0  0  0
   -0.5747   -4.5805    0.0000 C   0  0  0  0  0  0  0  0  0  0  0  0
   -0.0444   -5.2125    0.0000 C   0  0  0  0  0  0  0  0  0  0  0  0
   -0.8569   -3.8053    0.0000 C   0  0  0  0  0  0  0  0  0  0  0  0
   -1.6694   -3.6620    0.0000 C   0  0  0  0  0  0  0  0  0  0  0  0
   -2.1997   -4.2940    0.0000 C   0  0  0  0  0  0  0  0  0  0  0  0
   -1.9175   -5.0693    0.0000 C   0  0  0  0  0  0  0  0  0  0  0  0
   -1.1050   -5.2125    0.0000 C   0  0  0  0  0  0  0  0  0  0  0  0
    0.8542   -4.5805    0.0000 C   0  0  0  0  0  0  0  0  0  0  0  0
  1  2  1  0  0  0  0
  3  2  1  0  0  0  0
  4  3  2  0  0  0  0
  4  5  1  0  0  0  0
  5  6  1  0  0  0  0
  7  6  1  0  0  0  0
  8  7  2  0  0  0  0
  8  9  1  0  0  0  0
 10  8  1  0  0  0  0
 11 10  2  0  0  0  0
 11 12  1  0  0  0  0
 12 13  1  0  0  0  0
 14 12  1  0  0  0  0
 15 14  1  0  0  0  0
 16 15  1  0  0  0  0
 17 16  1  0  0  0  0
 18 17  1  0  0  0  0
 12 18  1  0  0  0  0
 19 11  1  0  0  0  0
  6 19  2  0  0  0  0
 19 20  1  0  0  0  0
 21  4  1  0  0  0  0
 21 22  1  0  0  0  0
 23 21  2  0  0  0  0
 23 24  1  0  0  0  0
 24 25  1  0  0  0  0
 26 24  1  0  0  0  0
 27 26  1  0  0  0  0
 28 27  1  0  0  0  0
 29 28  1  0  0  0  0
 30 29  1  0  0  0  0
 24 30  1  0  0  0  0
 31 23  1  0  0  0  0
  2 31  2  0  0  0  0
M  END
> <RowID>
697

> <Original_SMILES>
CC1C=C(CC2C=C(C)C=C(C=2O)C2(C)CCCCC2)C(O)=C(C=1)C1(C)CCCCC1

> <Canonical_QSARr>
CC1C=C(CC2C=C(C)C=C(C=2O)C2(C)CCCCC2)C(O)=C(C=1)C1(C)CCCCC1

> <InChI_Code_QSARr>
InChI=1S/C29H40O2/c1-20-15-22(26(30)24(17-20)28(3)11-7-5-8-12-28)19-23-16-21(2)18-25(27(23)31)29(4)13-9-6-10-14-29/h15-18,30-31H,5-14,19H2,1-4H3

> <InChI Key_QSARr>
PHXLONCQBNATSL-UHFFFAOYSA-N

> <Salt_Solvent>


> <Salt_Solvent_ID>
0

> <Number of connected components>
1

$$$$
Molecule_698
  Mrv2316 01072400032D          

 29 32  0  0  0  0            999 V2000
    0.0713   -4.4770    0.0000 C   0  0  0  0  0  0  0  0  0  0  0  0
    0.8834   -4.3318    0.0000 C   0  0  0  0  0  0  0  0  0  0  0  0
    1.4153   -4.9625    0.0000 O   0  0  0  0  0  0  0  0  0  0  0  0
    1.1637   -3.5559    0.0000 O   0  0  0  0  0  0  0  0  0  0  0  0
    1.9758   -3.4106    0.0000 C   0  0  0  0  0  0  0  0  0  0  0  0
    2.2561   -2.6347    0.0000 C   0  0  0  0  0  0  0  0  0  0  0  0
    1.7243   -2.0040    0.0000 O   0  0  0  0  0  0  0  0  0  0  0  0
    3.0683   -2.4895    0.0000 C   0  0  0  0  0  0  0  0  0  0  0  0
    3.1278   -3.3123    0.0000 O   0  0  0  0  0  0  0  0  0  0  0  0
    2.8390   -1.6970    0.0000 C   0  0  0  0  0  0  0  0  0  0  0  0
    2.0630   -1.4167    0.0000 O   0  0  0  0  0  0  0  0  0  0  0  0
    3.5218   -1.2340    0.0000 C   0  0  0  0  0  0  0  0  0  0  0  0
    4.1731   -1.7404    0.0000 C   0  0  0  0  0  0  0  0  0  0  0  0
    4.9853   -1.5952    0.0000 C   0  0  0  0  0  0  0  0  0  0  0  0
    5.2656   -0.8192    0.0000 C   0  0  0  0  0  0  0  0  0  0  0  0
    6.0777   -0.6740    0.0000 C   0  0  0  0  0  0  0  0  0  0  0  0
    6.6095   -1.3047    0.0000 C   0  0  0  0  0  0  0  0  0  0  0  0
    7.4216   -1.1595    0.0000 C   0  0  0  0  0  0  0  0  0  0  0  0
    7.9534   -1.7902    0.0000 C   0  0  0  0  0  0  0  0  0  0  0  0
    8.7655   -1.6450    0.0000 O   0  0  0  0  0  0  0  0  0  0  0  0
    7.6731   -2.5662    0.0000 C   0  0  0  0  0  0  0  0  0  0  0  0
    6.8610   -2.7114    0.0000 C   0  0  0  0  0  0  0  0  0  0  0  0
    6.3292   -2.0807    0.0000 C   0  0  0  0  0  0  0  0  0  0  0  0
    6.0489   -2.8566    0.0000 C   0  0  0  0  0  0  0  0  0  0  0  0
    5.5171   -2.2259    0.0000 C   0  0  0  0  0  0  0  0  0  0  0  0
    5.2368   -3.0018    0.0000 C   0  0  0  0  0  0  0  0  0  0  0  0
    4.4247   -3.1470    0.0000 C   0  0  0  0  0  0  0  0  0  0  0  0
    3.8928   -2.5163    0.0000 C   0  0  0  0  0  0  0  0  0  0  0  0
    3.5330   -3.2587    0.0000 C   0  0  0  0  0  0  0  0  0  0  0  0
  1  2  1  0  0  0  0
  2  3  2  0  0  0  0
  2  4  1  0  0  0  0
  4  5  1  0  0  0  0
  5  6  1  0  0  0  0
  6  7  2  0  0  0  0
  6  8  1  0  0  0  0
  8  9  1  0  0  0  0
 10  8  1  0  0  0  0
 10 11  1  0  0  0  0
 12 10  1  0  0  0  0
 13 12  1  0  0  0  0
 13 14  1  0  0  0  0
 15 14  1  0  0  0  0
 16 15  1  0  0  0  0
 17 16  1  0  0  0  0
 17 18  2  0  0  0  0
 18 19  1  0  0  0  0
 19 20  2  0  0  0  0
 19 21  1  0  0  0  0
 21 22  2  0  0  0  0
 22 23  1  0  0  0  0
 23 17  1  0  0  0  0
 23 24  1  0  0  0  0
 25 23  1  0  0  0  0
 14 25  1  0  0  0  0
 25 26  2  0  0  0  0
 26 27  1  0  0  0  0
 27 28  1  0  0  0  0
  8 28  1  0  0  0  0
 28 13  1  0  0  0  0
 28 29  1  0  0  0  0
M  END
> <RowID>
698

> <Original_SMILES>
CC(=O)OCC(=O)C1(O)C(O)CC2C3CCC4=CC(=O)C=CC4(C)C3=CCC12C

> <Canonical_QSARr>
CC(=O)OCC(=O)C1(O)C(O)CC2C3CCC4=CC(=O)C=CC4(C)C3=CCC12C

> <InChI_Code_QSARr>
InChI=1S/C23H28O6/c1-13(24)29-12-20(27)23(28)19(26)11-18-16-5-4-14-10-15(25)6-8-21(14,2)17(16)7-9-22(18,23)3/h6-8,10,16,18-19,26,28H,4-5,9,11-12H2,1-3H3

> <InChI Key_QSARr>
LUROGHOZLOFASD-UHFFFAOYSA-N

> <Salt_Solvent>


> <Salt_Solvent_ID>
0

> <Number of connected components>
1

$$$$
Molecule_699
  Mrv2316 01072400032D          

 11 11  0  0  0  0            999 V2000
    0.7145   -2.1375    0.0000 C   0  0  0  0  0  0  0  0  0  0  0  0
    0.7145   -1.3125    0.0000 C   0  0  0  0  0  0  0  0  0  0  0  0
    1.4289   -0.9000    0.0000 C   0  0  0  0  0  0  0  0  0  0  0  0
    1.4289   -0.0750    0.0000 C   0  0  0  0  0  0  0  0  0  0  0  0
    0.7145    0.3375    0.0000 C   0  0  0  0  0  0  0  0  0  0  0  0
    0.7145    1.1625    0.0000 C   0  0  0  0  0  0  0  0  0  0  0  0
   -0.0000    1.5750    0.0000 C   0  0  0  0  0  0  0  0  0  0  0  0
    1.4289    1.5750    0.0000 C   0  0  0  0  0  0  0  0  0  0  0  0
   -0.0000   -0.0750    0.0000 C   0  0  0  0  0  0  0  0  0  0  0  0
   -0.7145    0.3375    0.0000 O   0  0  0  0  0  0  0  0  0  0  0  0
   -0.0000   -0.9000    0.0000 C   0  0  0  0  0  0  0  0  0  0  0  0
  1  2  1  0  0  0  0
  3  2  1  0  0  0  0
  4  3  1  0  0  0  0
  5  4  1  0  0  0  0
  5  6  1  0  0  0  0
  6  7  1  0  0  0  0
  6  8  2  0  0  0  0
  9  5  1  0  0  0  0
  9 10  1  0  0  0  0
 11  9  1  0  0  0  0
  2 11  1  0  0  0  0
M  END
> <RowID>
699

> <Original_SMILES>
CC1CCC(C(O)C1)C(C)=C

> <Canonical_QSARr>
CC1CCC(C(O)C1)C(C)=C

> <InChI_Code_QSARr>
InChI=1S/C10H18O/c1-7(2)9-5-4-8(3)6-10(9)11/h8-11H,1,4-6H2,2-3H3

> <InChI Key_QSARr>
ZYTMANIQRDEHIO-UHFFFAOYSA-N

> <Salt_Solvent>


> <Salt_Solvent_ID>
0

> <Number of connected components>
1

$$$$
Molecule_700
  Mrv2316 01072400032D          

 29 30  0  0  0  0            999 V2000
    2.1434   -5.8461    0.0000 C   0  0  0  0  0  0  0  0  0  0  0  0
    1.4289   -5.4336    0.0000 C   0  0  0  0  0  0  0  0  0  0  0  0
    0.7145   -5.8461    0.0000 O   0  0  0  0  0  0  0  0  0  0  0  0
    1.4289   -4.6086    0.0000 C   0  0  0  0  0  0  0  0  0  0  0  0
    0.7145   -4.1961    0.0000 N   0  0  0  0  0  0  0  0  0  0  0  0
    0.7145   -3.3711    0.0000 N   0  0  0  0  0  0  0  0  0  0  0  0
    0.0000   -2.9586    0.0000 C   0  0  0  0  0  0  0  0  0  0  0  0
    0.0000   -2.1336    0.0000 C   0  0  0  0  0  0  0  0  0  0  0  0
   -0.7145   -1.7211    0.0000 C   0  0  0  0  0  0  0  0  0  0  0  0
   -1.4289   -2.1336    0.0000 C   0  0  0  0  0  0  0  0  0  0  0  0
   -2.1434   -1.7211    0.0000 N   0  3  0  0  0  0  0  0  0  0  0  0
   -2.8579   -2.1336    0.0000 O   0  5  0  0  0  0  0  0  0  0  0  0
   -2.1434   -0.8961    0.0000 O   0  0  0  0  0  0  0  0  0  0  0  0
   -1.4289   -2.9586    0.0000 C   0  0  0  0  0  0  0  0  0  0  0  0
   -0.7145   -3.3711    0.0000 C   0  0  0  0  0  0  0  0  0  0  0  0
   -0.7145   -4.1961    0.0000 O   0  0  0  0  0  0  0  0  0  0  0  0
    0.0000   -4.6086    0.0000 C   0  0  0  0  0  0  0  0  0  0  0  0
    2.1434   -4.1961    0.0000 C   0  0  0  0  0  0  0  0  0  0  0  0
    2.1434   -3.3711    0.0000 O   0  0  0  0  0  0  0  0  0  0  0  0
    2.8579   -4.6086    0.0000 N   0  0  0  0  0  0  0  0  0  0  0  0
    3.5724   -4.1961    0.0000 C   0  0  0  0  0  0  0  0  0  0  0  0
    4.2868   -4.6086    0.0000 C   0  0  0  0  0  0  0  0  0  0  0  0
    5.0013   -4.1961    0.0000 C   0  0  0  0  0  0  0  0  0  0  0  0
    5.7158   -4.6086    0.0000 Cl  0  0  0  0  0  0  0  0  0  0  0  0
    5.0013   -3.3711    0.0000 C   0  0  0  0  0  0  0  0  0  0  0  0
    4.2868   -2.9586    0.0000 C   0  0  0  0  0  0  0  0  0  0  0  0
    3.5724   -3.3711    0.0000 C   0  0  0  0  0  0  0  0  0  0  0  0
    2.8579   -2.9586    0.0000 O   0  0  0  0  0  0  0  0  0  0  0  0
    2.8579   -2.1336    0.0000 C   0  0  0  0  0  0  0  0  0  0  0  0
  1  2  1  0  0  0  0
  2  3  2  0  0  0  0
  2  4  1  0  0  0  0
  5  4  1  4  0  0  0
  5  6  2  0  0  0  0
  6  7  1  0  0  0  0
  8  7  2  0  0  0  0
  9  8  1  0  0  0  0
 10  9  2  0  0  0  0
 10 11  1  0  0  0  0
 11 12  1  0  0  0  0
 11 13  2  0  0  0  0
 14 10  1  0  0  0  0
 15 14  2  0  0  0  0
  7 15  1  0  0  0  0
 15 16  1  0  0  0  0
 16 17  1  0  0  0  0
  4 18  1  0  0  0  0
 18 19  2  0  0  0  0
 18 20  1  0  0  0  0
 20 21  1  0  0  0  0
 22 21  2  0  0  0  0
 23 22  1  0  0  0  0
 23 24  1  0  0  0  0
 25 23  2  0  0  0  0
 26 25  1  0  0  0  0
 27 26  2  0  0  0  0
 21 27  1  0  0  0  0
 27 28  1  0  0  0  0
 28 29  1  0  0  0  0
M  CHG  2  11   1  12  -1
M  END
> <RowID>
700

> <Original_SMILES>
CC(=O)C(N=NC1=CC=C(C=C1OC)[N+]([O-])=O)C(=O)NC1=CC(Cl)=CC=C1OC

> <Canonical_QSARr>
CC(=O)C(N=NC1=CC=C(C=C1OC)[N+]([O-])=O)C(=O)NC1=CC(Cl)=CC=C1OC

> <InChI_Code_QSARr>
InChI=1S/C18H17ClN4O6/c1-10(24)17(18(25)20-14-8-11(19)4-7-15(14)28-2)22-21-13-6-5-12(23(26)27)9-16(13)29-3/h4-9,17H,1-3H3,(H,20,25)

> <InChI Key_QSARr>
AYOFXUHULUCJBF-UHFFFAOYSA-N

> <Salt_Solvent>


> <Salt_Solvent_ID>
0

> <Number of connected components>
1

$$$$
Molecule_702
  Mrv2316 01072400032D          

  7  6  0  0  0  0            999 V2000
    1.6500    1.4289    0.0000 C   0  0  0  0  0  0  0  0  0  0  0  0
    1.2375    0.7145    0.0000 C   0  0  0  0  0  0  0  0  0  0  0  0
    0.5230    1.1270    0.0000 C   0  0  0  0  0  0  0  0  0  0  0  0
    1.9520    0.3020    0.0000 C   0  0  0  0  0  0  0  0  0  0  0  0
    0.8250    0.0000    0.0000 C   0  0  0  0  0  0  0  0  0  0  0  0
    1.2375   -0.7145    0.0000 O   0  0  0  0  0  0  0  0  0  0  0  0
    0.0000    0.0000    0.0000 O   0  0  0  0  0  0  0  0  0  0  0  0
  1  2  1  0  0  0  0
  2  3  1  0  0  0  0
  2  4  1  0  0  0  0
  2  5  1  0  0  0  0
  5  6  1  0  0  0  0
  5  7  2  0  0  0  0
M  END
> <RowID>
702

> <Original_SMILES>
CC(C)(C)C(O)=O

> <Canonical_QSARr>
CC(C)(C)C(O)=O

> <InChI_Code_QSARr>
InChI=1S/C5H10O2/c1-5(2,3)4(6)7/h1-3H3,(H,6,7)

> <InChI Key_QSARr>
IUGYQRQAERSCNH-UHFFFAOYSA-N

> <Salt_Solvent>


> <Salt_Solvent_ID>
0

> <Number of connected components>
1

$$$$
Molecule_703
  Mrv2316 01072400032D          

 19 20  0  0  0  0            999 V2000
    1.4289   -7.4250    0.0000 C   0  0  0  0  0  0  0  0  0  0  0  0
    2.1434   -7.0125    0.0000 S   0  0  0  0  0  0  0  0  0  0  0  0
    2.1434   -6.1875    0.0000 C   0  0  0  0  0  0  0  0  0  0  0  0
    2.8579   -5.7750    0.0000 C   0  0  0  0  0  0  0  0  0  0  0  0
    2.8579   -4.9500    0.0000 C   0  0  0  0  0  0  0  0  0  0  0  0
    2.1434   -4.5375    0.0000 C   0  0  0  0  0  0  0  0  0  0  0  0
    2.1434   -3.7125    0.0000 C   0  0  0  0  0  0  0  0  0  0  0  0
    2.8579   -3.3000    0.0000 O   0  0  0  0  0  0  0  0  0  0  0  0
    1.4289   -3.3000    0.0000 C   0  0  0  0  0  0  0  0  0  0  0  0
    1.8414   -2.5855    0.0000 C   0  0  0  0  0  0  0  0  0  0  0  0
    1.0164   -4.0145    0.0000 C   0  0  0  0  0  0  0  0  0  0  0  0
    0.7145   -2.8875    0.0000 N   0  0  0  0  0  0  0  0  0  0  0  0
    0.7145   -2.0625    0.0000 C   0  0  0  0  0  0  0  0  0  0  0  0
   -0.0000   -1.6500    0.0000 C   0  0  0  0  0  0  0  0  0  0  0  0
   -0.7145   -2.0625    0.0000 O   0  0  0  0  0  0  0  0  0  0  0  0
   -0.7145   -2.8875    0.0000 C   0  0  0  0  0  0  0  0  0  0  0  0
   -0.0000   -3.3000    0.0000 C   0  0  0  0  0  0  0  0  0  0  0  0
    1.4289   -4.9500    0.0000 C   0  0  0  0  0  0  0  0  0  0  0  0
    1.4289   -5.7750    0.0000 C   0  0  0  0  0  0  0  0  0  0  0  0
  1  2  1  0  0  0  0
  2  3  1  0  0  0  0
  4  3  1  0  0  0  0
  5  4  2  0  0  0  0
  6  5  1  0  0  0  0
  6  7  1  0  0  0  0
  7  8  2  0  0  0  0
  7  9  1  0  0  0  0
  9 10  1  0  0  0  0
  9 11  1  0  0  0  0
  9 12  1  0  0  0  0
 13 12  1  0  0  0  0
 14 13  1  0  0  0  0
 15 14  1  0  0  0  0
 16 15  1  0  0  0  0
 17 16  1  0  0  0  0
 12 17  1  0  0  0  0
 18  6  2  0  0  0  0
 19 18  1  0  0  0  0
  3 19  2  0  0  0  0
M  END
> <RowID>
703

> <Original_SMILES>
CSC1C=CC(=CC=1)C(=O)C(C)(C)N1CCOCC1

> <Canonical_QSARr>
CSC1C=CC(=CC=1)C(=O)C(C)(C)N1CCOCC1

> <InChI_Code_QSARr>
InChI=1S/C15H21NO2S/c1-15(2,16-8-10-18-11-9-16)14(17)12-4-6-13(19-3)7-5-12/h4-7H,8-11H2,1-3H3

> <InChI Key_QSARr>
LWRBVKNFOYUCNP-UHFFFAOYSA-N

> <Salt_Solvent>


> <Salt_Solvent_ID>
0

> <Number of connected components>
1

$$$$
Molecule_704
  Mrv2316 01072400032D          

 33 32  0  0  0  0            999 V2000
    4.0954   -0.1105    0.0000 C   0  0  0  0  0  0  0  0  0  0  0  0
    4.0954   -0.9355    0.0000 C   0  0  0  0  0  0  0  0  0  0  0  0
    4.8099   -1.3480    0.0000 C   0  0  0  0  0  0  0  0  0  0  0  0
    5.5243   -0.9355    0.0000 Cl  0  0  0  0  0  0  0  0  0  0  0  0
    3.3809   -1.3480    0.0000 O   0  0  0  0  0  0  0  0  0  0  0  0
    2.6664   -0.9355    0.0000 P   0  0  0  0  0  0  0  0  0  0  0  0
    3.0789   -0.2210    0.0000 O   0  0  0  0  0  0  0  0  0  0  0  0
    2.2539   -1.6500    0.0000 O   0  0  0  0  0  0  0  0  0  0  0  0
    2.6664   -2.3644    0.0000 C   0  0  0  0  0  0  0  0  0  0  0  0
    2.2539   -3.0789    0.0000 C   0  0  0  0  0  0  0  0  0  0  0  0
    3.4914   -2.3644    0.0000 C   0  0  0  0  0  0  0  0  0  0  0  0
    3.9039   -3.0789    0.0000 Cl  0  0  0  0  0  0  0  0  0  0  0  0
    1.9520   -0.5230    0.0000 O   0  0  0  0  0  0  0  0  0  0  0  0
    1.9520    0.3020    0.0000 C   0  0  0  0  0  0  0  0  0  0  0  0
    1.2375    0.7145    0.0000 C   0  0  0  0  0  0  0  0  0  0  0  0
    0.5230    1.1270    0.0000 C   0  0  0  0  0  0  0  0  0  0  0  0
    0.5230    1.9520    0.0000 O   0  0  0  0  0  0  0  0  0  0  0  0
   -0.1914    2.3645    0.0000 P   0  0  0  0  0  0  0  0  0  0  0  0
   -0.6039    1.6500    0.0000 O   0  0  0  0  0  0  0  0  0  0  0  0
    0.2211    3.0790    0.0000 O   0  0  0  0  0  0  0  0  0  0  0  0
   -0.1914    3.7934    0.0000 C   0  0  0  0  0  0  0  0  0  0  0  0
   -1.0164    3.7934    0.0000 C   0  0  0  0  0  0  0  0  0  0  0  0
    0.2211    4.5079    0.0000 C   0  0  0  0  0  0  0  0  0  0  0  0
   -0.1914    5.2224    0.0000 Cl  0  0  0  0  0  0  0  0  0  0  0  0
   -0.9059    2.7770    0.0000 O   0  0  0  0  0  0  0  0  0  0  0  0
   -1.6204    2.3645    0.0000 C   0  0  0  0  0  0  0  0  0  0  0  0
   -2.3349    2.7770    0.0000 C   0  0  0  0  0  0  0  0  0  0  0  0
   -1.6204    1.5395    0.0000 C   0  0  0  0  0  0  0  0  0  0  0  0
   -2.3349    1.1270    0.0000 Cl  0  0  0  0  0  0  0  0  0  0  0  0
    1.6500    1.4290    0.0000 C   0  0  0  0  0  0  0  0  0  0  0  0
    2.4750    1.4290    0.0000 Cl  0  0  0  0  0  0  0  0  0  0  0  0
    0.8250    0.0000    0.0000 C   0  0  0  0  0  0  0  0  0  0  0  0
    0.0000    0.0000    0.0000 Cl  0  0  0  0  0  0  0  0  0  0  0  0
  1  2  1  0  0  0  0
  2  3  1  0  0  0  0
  3  4  1  0  0  0  0
  2  5  1  0  0  0  0
  5  6  1  0  0  0  0
  6  7  2  0  0  0  0
  6  8  1  0  0  0  0
  8  9  1  0  0  0  0
  9 10  1  0  0  0  0
  9 11  1  0  0  0  0
 11 12  1  0  0  0  0
  6 13  1  0  0  0  0
 13 14  1  0  0  0  0
 14 15  1  0  0  0  0
 15 16  1  0  0  0  0
 16 17  1  0  0  0  0
 17 18  1  0  0  0  0
 18 19  2  0  0  0  0
 18 20  1  0  0  0  0
 20 21  1  0  0  0  0
 21 22  1  0  0  0  0
 21 23  1  0  0  0  0
 23 24  1  0  0  0  0
 18 25  1  0  0  0  0
 25 26  1  0  0  0  0
 26 27  1  0  0  0  0
 26 28  1  0  0  0  0
 28 29  1  0  0  0  0
 15 30  1  0  0  0  0
 30 31  1  0  0  0  0
 15 32  1  0  0  0  0
 32 33  1  0  0  0  0
M  END
> <RowID>
704

> <Original_SMILES>
CC(CCl)OP(=O)(OC(C)CCl)OCC(COP(=O)(OC(C)CCl)OC(C)CCl)(CCl)CCl

> <Canonical_QSARr>
CC(CCl)OP(=O)(OC(C)CCl)OCC(COP(=O)(OC(C)CCl)OC(C)CCl)(CCl)CCl

> <InChI_Code_QSARr>
InChI=1S/C17H32Cl6O8P2/c1-13(5-18)28-32(24,29-14(2)6-19)26-11-17(9-22,10-23)12-27-33(25,30-15(3)7-20)31-16(4)8-21/h13-16H,5-12H2,1-4H3

> <InChI Key_QSARr>
NQJUKCVIIGJHRZ-UHFFFAOYSA-N

> <Salt_Solvent>


> <Salt_Solvent_ID>
0

> <Number of connected components>
1

$$$$
Molecule_705
  Mrv2316 01072400032D          

 42 48  0  0  0  0            999 V2000
    3.5724   -1.2375    0.0000 C   0  0  0  0  0  0  0  0  0  0  0  0
    3.5724   -0.4125    0.0000 C   0  0  0  0  0  0  0  0  0  0  0  0
    2.8579    0.0000    0.0000 C   0  0  0  0  0  0  0  0  0  0  0  0
    2.8579    0.8250    0.0000 C   0  0  0  0  0  0  0  0  0  0  0  0
    3.5724    1.2375    0.0000 C   0  0  0  0  0  0  0  0  0  0  0  0
    3.5724    2.0625    0.0000 C   0  0  0  0  0  0  0  0  0  0  0  0
    2.8579    2.4750    0.0000 C   0  0  0  0  0  0  0  0  0  0  0  0
    2.1434    2.0625    0.0000 C   0  0  0  0  0  0  0  0  0  0  0  0
    2.1434    1.2375    0.0000 C   0  0  0  0  0  0  0  0  0  0  0  0
    2.1434   -0.4125    0.0000 C   0  0  0  0  0  0  0  0  0  0  0  0
    2.1434   -1.2375    0.0000 C   0  0  0  0  0  0  0  0  0  0  0  0
    2.8579   -1.6500    0.0000 C   0  0  0  0  0  0  0  0  0  0  0  0
    2.8579   -2.4750    0.0000 C   0  0  0  0  0  0  0  0  0  0  0  0
    2.1434   -2.8875    0.0000 N   0  0  0  0  0  0  0  0  0  0  0  0
    2.1434   -3.7125    0.0000 C   0  0  0  0  0  0  0  0  0  0  0  0
    1.4290   -4.1250    0.0000 C   0  0  0  0  0  0  0  0  0  0  0  0
    0.7145   -3.7125    0.0000 C   0  0  0  0  0  0  0  0  0  0  0  0
    0.0000   -4.1250    0.0000 C   0  0  0  0  0  0  0  0  0  0  0  0
    0.0000   -4.9500    0.0000 C   0  0  0  0  0  0  0  0  0  0  0  0
   -0.7145   -5.3625    0.0000 C   0  0  0  0  0  0  0  0  0  0  0  0
   -1.4289   -4.9500    0.0000 C   0  0  0  0  0  0  0  0  0  0  0  0
   -2.1434   -5.3625    0.0000 C   0  0  0  0  0  0  0  0  0  0  0  0
   -2.1434   -6.1875    0.0000 C   0  0  0  0  0  0  0  0  0  0  0  0
   -1.4289   -6.6000    0.0000 C   0  0  0  0  0  0  0  0  0  0  0  0
   -0.7145   -6.1875    0.0000 C   0  0  0  0  0  0  0  0  0  0  0  0
    0.7145   -5.3625    0.0000 C   0  0  0  0  0  0  0  0  0  0  0  0
    1.4290   -4.9500    0.0000 C   0  0  0  0  0  0  0  0  0  0  0  0
    2.8579   -4.1250    0.0000 N   0  0  0  0  0  0  0  0  0  0  0  0
    3.5724   -3.7125    0.0000 C   0  0  0  0  0  0  0  0  0  0  0  0
    4.2868   -4.1250    0.0000 C   0  0  0  0  0  0  0  0  0  0  0  0
    4.2868   -4.9500    0.0000 C   0  0  0  0  0  0  0  0  0  0  0  0
    5.0013   -5.3625    0.0000 C   0  0  0  0  0  0  0  0  0  0  0  0
    5.7158   -4.9500    0.0000 C   0  0  0  0  0  0  0  0  0  0  0  0
    6.4303   -5.3625    0.0000 C   0  0  0  0  0  0  0  0  0  0  0  0
    6.4303   -6.1875    0.0000 C   0  0  0  0  0  0  0  0  0  0  0  0
    7.1447   -6.6000    0.0000 C   0  0  0  0  0  0  0  0  0  0  0  0
    7.8592   -6.1875    0.0000 C   0  0  0  0  0  0  0  0  0  0  0  0
    7.8592   -5.3625    0.0000 C   0  0  0  0  0  0  0  0  0  0  0  0
    7.1447   -4.9500    0.0000 C   0  0  0  0  0  0  0  0  0  0  0  0
    5.7158   -4.1250    0.0000 C   0  0  0  0  0  0  0  0  0  0  0  0
    5.0013   -3.7125    0.0000 C   0  0  0  0  0  0  0  0  0  0  0  0
    3.5724   -2.8875    0.0000 N   0  0  0  0  0  0  0  0  0  0  0  0
  2  1  2  0  0  0  0
  3  2  1  0  0  0  0
  3  4  1  0  0  0  0
  5  4  1  0  0  0  0
  6  5  2  0  0  0  0
  7  6  1  0  0  0  0
  8  7  2  0  0  0  0
  9  8  1  0  0  0  0
  4  9  2  0  0  0  0
 10  3  2  0  0  0  0
 11 10  1  0  0  0  0
 12 11  2  0  0  0  0
  1 12  1  0  0  0  0
 12 13  1  0  0  0  0
 14 13  1  0  0  0  0
 15 14  2  0  0  0  0
 15 16  1  0  0  0  0
 17 16  1  0  0  0  0
 18 17  2  0  0  0  0
 19 18  1  0  0  0  0
 19 20  1  0  0  0  0
 21 20  1  0  0  0  0
 22 21  2  0  0  0  0
 23 22  1  0  0  0  0
 24 23  2  0  0  0  0
 25 24  1  0  0  0  0
 20 25  2  0  0  0  0
 26 19  2  0  0  0  0
 27 26  1  0  0  0  0
 16 27  2  0  0  0  0
 28 15  1  0  0  0  0
 29 28  2  0  0  0  0
 29 30  1  0  0  0  0
 31 30  1  0  0  0  0
 32 31  2  0  0  0  0
 33 32  1  0  0  0  0
 33 34  1  0  0  0  0
 35 34  1  0  0  0  0
 36 35  2  0  0  0  0
 37 36  1  0  0  0  0
 38 37  2  0  0  0  0
 39 38  1  0  0  0  0
 34 39  2  0  0  0  0
 40 33  2  0  0  0  0
 41 40  1  0  0  0  0
 30 41  2  0  0  0  0
 42 29  1  0  0  0  0
 13 42  2  0  0  0  0
M  END
> <RowID>
705

> <Original_SMILES>
C1=CC(=CC=C1C1N=C(N=C(N=1)C1C=CC(=CC=1)C1C=CC=CC=1)C1C=CC(=CC=1)C1C=CC=CC=1)C1C=CC=CC=1

> <Canonical_QSARr>
C1=CC(=CC=C1C1N=C(N=C(N=1)C1C=CC(=CC=1)C1C=CC=CC=1)C1C=CC(=CC=1)C1C=CC=CC=1)C1C=CC=CC=1

> <InChI_Code_QSARr>
InChI=1S/C39H27N3/c1-4-10-28(11-5-1)31-16-22-34(23-17-31)37-40-38(35-24-18-32(19-25-35)29-12-6-2-7-13-29)42-39(41-37)36-26-20-33(21-27-36)30-14-8-3-9-15-30/h1-27H

> <InChI Key_QSARr>
CENPSTJGQOQKKW-UHFFFAOYSA-N

> <Salt_Solvent>


> <Salt_Solvent_ID>
0

> <Number of connected components>
1

$$$$
Molecule_706
  Mrv2316 01072400032D          

 14 13  0  0  0  0            999 V2000
    3.5211    2.8579    0.0000 O   0  0  0  0  0  0  0  0  0  0  0  0
    4.2355    3.2704    0.0000 C   0  0  0  0  0  0  0  0  0  0  0  0
    4.2355    4.0954    0.0000 O   0  0  0  0  0  0  0  0  0  0  0  0
    4.9500    2.8579    0.0000 C   0  0  0  0  0  0  0  0  0  0  0  0
    5.6645    3.2704    0.0000 C   0  0  0  0  0  0  0  0  0  0  0  0
    6.3789    2.8579    0.0000 C   0  0  0  0  0  0  0  0  0  0  0  0
    7.0934    3.2704    0.0000 C   0  0  0  0  0  0  0  0  0  0  0  0
    7.8079    2.8579    0.0000 C   0  0  0  0  0  0  0  0  0  0  0  0
    8.5224    3.2704    0.0000 C   0  0  0  0  0  0  0  0  0  0  0  0
    9.2368    2.8579    0.0000 C   0  0  0  0  0  0  0  0  0  0  0  0
    9.9513    3.2704    0.0000 C   0  0  0  0  0  0  0  0  0  0  0  0
   10.6658    2.8579    0.0000 C   0  0  0  0  0  0  0  0  0  0  0  0
   11.3802    3.2704    0.0000 O   0  0  0  0  0  0  0  0  0  0  0  0
   10.6658    2.0329    0.0000 O   0  0  0  0  0  0  0  0  0  0  0  0
  1  2  1  0  0  0  0
  2  3  2  0  0  0  0
  2  4  1  0  0  0  0
  4  5  1  0  0  0  0
  5  6  1  0  0  0  0
  6  7  1  0  0  0  0
  7  8  1  0  0  0  0
  8  9  1  0  0  0  0
  9 10  1  0  0  0  0
 10 11  1  0  0  0  0
 11 12  1  0  0  0  0
 12 13  1  0  0  0  0
 12 14  2  0  0  0  0
M  END
> <RowID>
706

> <Original_SMILES>
[Li+].[Li+].[O-]C(=O)CCCCCCCCC([O-])=O

> <Canonical_QSARr>
OC(=O)CCCCCCCCC(O)=O

> <InChI_Code_QSARr>
InChI=1S/C10H18O4/c11-9(12)7-5-3-1-2-4-6-8-10(13)14/h1-8H2,(H,11,12)(H,13,14)

> <InChI Key_QSARr>
CXMXRPHRNRROMY-UHFFFAOYSA-N

> <Salt_Solvent>
[Li+]

> <Salt_Solvent_ID>
30

> <Number of connected components>
3

$$$$
Molecule_707
  Mrv2316 01072400032D          

  7  6  0  0  0  0            999 V2000
    1.2375    2.1434    0.0000 C   0  0  0  0  0  0  0  0  0  0  0  0
    0.8250    1.4289    0.0000 O   0  0  0  0  0  0  0  0  0  0  0  0
    1.2375    0.7145    0.0000 C   0  0  0  0  0  0  0  0  0  0  0  0
    2.0625    0.7145    0.0000 O   0  0  0  0  0  0  0  0  0  0  0  0
    0.8250   -0.0000    0.0000 C   0  0  0  0  0  0  0  0  0  0  0  0
    1.2375   -0.7145    0.0000 C   0  0  0  0  0  0  0  0  0  0  0  0
    0.0000   -0.0000    0.0000 F   0  0  0  0  0  0  0  0  0  0  0  0
  1  2  1  0  0  0  0
  2  3  1  0  0  0  0
  3  4  2  0  0  0  0
  3  5  1  0  0  0  0
  5  6  2  0  0  0  0
  5  7  1  0  0  0  0
M  END
> <RowID>
707

> <Original_SMILES>
COC(=O)C(=C)F

> <Canonical_QSARr>
COC(=O)C(=C)F

> <InChI_Code_QSARr>
InChI=1S/C4H5FO2/c1-3(5)4(6)7-2/h1H2,2H3

> <InChI Key_QSARr>
ZTZJVAOTIOAZGZ-UHFFFAOYSA-N

> <Salt_Solvent>


> <Salt_Solvent_ID>
0

> <Number of connected components>
1

$$$$
Molecule_708
  Mrv2316 01072400032D          

 18 17  0  0  0  0            999 V2000
   -0.1127   -3.1046    0.0000 O   0  0  0  0  0  0  0  0  0  0  0  0
    0.6974   -2.9487    0.0000 C   0  0  0  0  0  0  0  0  0  0  0  0
    0.9675   -2.1692    0.0000 O   0  0  0  0  0  0  0  0  0  0  0  0
    1.2375   -3.5724    0.0000 C   0  0  0  0  0  0  0  0  0  0  0  0
    2.0476   -3.4164    0.0000 N   0  0  0  0  0  0  0  0  0  0  0  0
    2.5877   -4.0401    0.0000 C   0  0  0  0  0  0  0  0  0  0  0  0
    3.3979   -3.8842    0.0000 C   0  0  0  0  0  0  0  0  0  0  0  0
    3.9379   -4.5078    0.0000 C   0  0  0  0  0  0  0  0  0  0  0  0
    4.7481   -4.3519    0.0000 N   0  0  0  0  0  0  0  0  0  0  0  0
    5.2882   -4.9755    0.0000 C   0  0  0  0  0  0  0  0  0  0  0  0
    6.0983   -4.8196    0.0000 O   0  0  0  0  0  0  0  0  0  0  0  0
    5.0181   -5.7551    0.0000 O   0  0  0  0  0  0  0  0  0  0  0  0
    5.0181   -3.5724    0.0000 C   0  0  0  0  0  0  0  0  0  0  0  0
    4.4780   -2.9487    0.0000 O   0  0  0  0  0  0  0  0  0  0  0  0
    5.8283   -3.4164    0.0000 O   0  0  0  0  0  0  0  0  0  0  0  0
    2.3177   -2.6369    0.0000 C   0  0  0  0  0  0  0  0  0  0  0  0
    3.1278   -2.4810    0.0000 O   0  0  0  0  0  0  0  0  0  0  0  0
    1.7776   -2.0133    0.0000 O   0  0  0  0  0  0  0  0  0  0  0  0
  1  2  1  0  0  0  0
  2  3  2  0  0  0  0
  2  4  1  0  0  0  0
  4  5  1  0  0  0  0
  5  6  1  0  0  0  0
  6  7  1  0  0  0  0
  7  8  1  0  0  0  0
  8  9  1  0  0  0  0
  9 10  1  0  0  0  0
 10 11  1  0  0  0  0
 10 12  2  0  0  0  0
  9 13  1  0  0  0  0
 13 14  1  0  0  0  0
 13 15  2  0  0  0  0
  5 16  1  0  0  0  0
 16 17  1  0  0  0  0
 16 18  2  0  0  0  0
M  END
> <RowID>
708

> <Original_SMILES>
[NH4+].[Fe+3].[O-]C(=O)N(CC([O-])=O)CCCN(C([O-])=O)C([O-])=O

> <Canonical_QSARr>
OC(=O)N(CC(O)=O)CCCN(C(O)=O)C(O)=O

> <InChI_Code_QSARr>
InChI=1S/C8H12N2O8/c11-5(12)4-9(6(13)14)2-1-3-10(7(15)16)8(17)18/h1-4H2,(H,11,12)(H,13,14)(H,15,16)(H,17,18)

> <InChI Key_QSARr>
FTDFSULOBTXNTE-UHFFFAOYSA-N

> <Salt_Solvent>
[NH4+].[Fe+3]

> <Salt_Solvent_ID>
165

> <Number of connected components>
3

$$$$
Molecule_709
  Mrv2316 01072400032D          

 24 25  0  0  0  0            999 V2000
    0.7145   -8.1812    0.0000 C   0  0  0  0  0  0  0  0  0  0  0  0
    0.7145   -7.3562    0.0000 O   0  0  0  0  0  0  0  0  0  0  0  0
    1.4289   -6.9437    0.0000 C   0  0  0  0  0  0  0  0  0  0  0  0
    2.1434   -7.3562    0.0000 O   0  0  0  0  0  0  0  0  0  0  0  0
    1.4289   -6.1187    0.0000 C   0  0  0  0  0  0  0  0  0  0  0  0
    2.1434   -5.7062    0.0000 C   0  0  0  0  0  0  0  0  0  0  0  0
    2.1434   -4.8812    0.0000 C   0  0  0  0  0  0  0  0  0  0  0  0
    1.4289   -4.4687    0.0000 C   0  0  0  0  0  0  0  0  0  0  0  0
    1.4289   -3.6437    0.0000 C   0  0  0  0  0  0  0  0  0  0  0  0
    0.7145   -3.2312    0.0000 O   0  0  0  0  0  0  0  0  0  0  0  0
    2.1434   -3.2312    0.0000 N   0  0  0  0  0  0  0  0  0  0  0  0
    2.1434   -2.4062    0.0000 C   0  0  0  0  0  0  0  0  0  0  0  0
    2.8579   -1.9937    0.0000 C   0  0  0  0  0  0  0  0  0  0  0  0
    2.8579   -1.1687    0.0000 C   0  0  0  0  0  0  0  0  0  0  0  0
    3.5724   -0.7562    0.0000 Cl  0  0  0  0  0  0  0  0  0  0  0  0
    2.1434   -0.7562    0.0000 C   0  0  0  0  0  0  0  0  0  0  0  0
    1.4289   -1.1687    0.0000 C   0  0  0  0  0  0  0  0  0  0  0  0
    1.4289   -1.9937    0.0000 C   0  0  0  0  0  0  0  0  0  0  0  0
    0.7145   -2.4062    0.0000 Cl  0  0  0  0  0  0  0  0  0  0  0  0
    0.7145   -4.8812    0.0000 C   0  0  0  0  0  0  0  0  0  0  0  0
    0.7145   -5.7062    0.0000 C   0  0  0  0  0  0  0  0  0  0  0  0
   -0.0000   -6.1187    0.0000 N   0  3  0  0  0  0  0  0  0  0  0  0
   -0.0000   -6.9437    0.0000 O   0  5  0  0  0  0  0  0  0  0  0  0
   -0.7145   -5.7062    0.0000 O   0  0  0  0  0  0  0  0  0  0  0  0
  1  2  1  0  0  0  0
  2  3  1  0  0  0  0
  3  4  2  0  0  0  0
  3  5  1  0  0  0  0
  6  5  1  0  0  0  0
  7  6  2  0  0  0  0
  8  7  1  0  0  0  0
  8  9  1  0  0  0  0
  9 10  2  0  0  0  0
  9 11  1  0  0  0  0
 11 12  1  0  0  0  0
 13 12  1  0  0  0  0
 14 13  2  0  0  0  0
 14 15  1  0  0  0  0
 16 14  1  0  0  0  0
 17 16  2  0  0  0  0
 18 17  1  0  0  0  0
 12 18  2  0  0  0  0
 18 19  1  0  0  0  0
 20  8  2  0  0  0  0
 21 20  1  0  0  0  0
  5 21  2  0  0  0  0
 21 22  1  0  0  0  0
 22 23  1  0  0  0  0
 22 24  2  0  0  0  0
M  CHG  2  22   1  23  -1
M  END
> <RowID>
709

> <Original_SMILES>
COC(=O)C1C=CC(=CC=1[N+]([O-])=O)C(=O)NC1C=C(Cl)C=CC=1Cl

> <Canonical_QSARr>
COC(=O)C1C=CC(=CC=1[N+]([O-])=O)C(=O)NC1C=C(Cl)C=CC=1Cl

> <InChI_Code_QSARr>
InChI=1S/C15H10Cl2N2O5/c1-24-15(21)10-4-2-8(6-13(10)19(22)23)14(20)18-12-7-9(16)3-5-11(12)17/h2-7H,1H3,(H,18,20)

> <InChI Key_QSARr>
BVBSCSYCFCDVEU-UHFFFAOYSA-N

> <Salt_Solvent>


> <Salt_Solvent_ID>
0

> <Number of connected components>
1

$$$$
Molecule_710
  Mrv2316 01072400032D          

 21 22  0  0  0  0            999 V2000
    0.7145   -9.0554    0.0000 N   0  0  0  0  0  0  0  0  0  0  0  0
    1.4289   -8.6429    0.0000 C   0  0  0  0  0  0  0  0  0  0  0  0
    2.1434   -9.0554    0.0000 O   0  0  0  0  0  0  0  0  0  0  0  0
    1.4289   -7.8179    0.0000 C   0  0  0  0  0  0  0  0  0  0  0  0
    2.1434   -7.4054    0.0000 C   0  0  0  0  0  0  0  0  0  0  0  0
    2.1434   -6.5804    0.0000 C   0  0  0  0  0  0  0  0  0  0  0  0
    1.4289   -6.1679    0.0000 C   0  0  0  0  0  0  0  0  0  0  0  0
    1.4289   -5.3429    0.0000 N   0  0  0  0  0  0  0  0  0  0  0  0
    2.1434   -4.9304    0.0000 C   0  0  0  0  0  0  0  0  0  0  0  0
    2.8579   -5.3429    0.0000 O   0  0  0  0  0  0  0  0  0  0  0  0
    2.1434   -4.1054    0.0000 C   0  0  0  0  0  0  0  0  0  0  0  0
    2.8579   -3.6929    0.0000 C   0  0  0  0  0  0  0  0  0  0  0  0
    2.8579   -2.8679    0.0000 C   0  0  0  0  0  0  0  0  0  0  0  0
    2.1434   -2.4554    0.0000 C   0  0  0  0  0  0  0  0  0  0  0  0
    2.1434   -1.6304    0.0000 N   0  3  0  0  0  0  0  0  0  0  0  0
    1.4289   -1.2179    0.0000 O   0  5  0  0  0  0  0  0  0  0  0  0
    2.8579   -1.2179    0.0000 O   0  0  0  0  0  0  0  0  0  0  0  0
    1.4289   -2.8679    0.0000 C   0  0  0  0  0  0  0  0  0  0  0  0
    1.4289   -3.6929    0.0000 C   0  0  0  0  0  0  0  0  0  0  0  0
    0.7145   -6.5804    0.0000 C   0  0  0  0  0  0  0  0  0  0  0  0
    0.7145   -7.4054    0.0000 C   0  0  0  0  0  0  0  0  0  0  0  0
  1  2  1  0  0  0  0
  2  3  2  0  0  0  0
  2  4  1  0  0  0  0
  5  4  1  0  0  0  0
  6  5  2  0  0  0  0
  7  6  1  0  0  0  0
  7  8  1  0  0  0  0
  8  9  1  0  0  0  0
  9 10  2  0  0  0  0
  9 11  1  0  0  0  0
 12 11  1  0  0  0  0
 13 12  2  0  0  0  0
 14 13  1  0  0  0  0
 14 15  1  0  0  0  0
 15 16  1  0  0  0  0
 15 17  2  0  0  0  0
 18 14  2  0  0  0  0
 19 18  1  0  0  0  0
 11 19  2  0  0  0  0
 20  7  2  0  0  0  0
 21 20  1  0  0  0  0
  4 21  2  0  0  0  0
M  CHG  2  15   1  16  -1
M  END
> <RowID>
710

> <Original_SMILES>
NC(=O)C1C=CC(=CC=1)NC(=O)C1C=CC(=CC=1)[N+]([O-])=O

> <Canonical_QSARr>
NC(=O)C1C=CC(=CC=1)NC(=O)C1C=CC(=CC=1)[N+]([O-])=O

> <InChI_Code_QSARr>
InChI=1S/C14H11N3O4/c15-13(18)9-1-5-11(6-2-9)16-14(19)10-3-7-12(8-4-10)17(20)21/h1-8H,(H2,15,18)(H,16,19)

> <InChI Key_QSARr>
FANLHXKNWWSLIG-UHFFFAOYSA-N

> <Salt_Solvent>


> <Salt_Solvent_ID>
0

> <Number of connected components>
1

$$$$
Molecule_711
  Mrv2316 01072400032D          

 28 31  0  0  0  0            999 V2000
    3.5330   -1.0541    0.0000 C   0  0  0  0  0  0  0  0  0  0  0  0
    3.8928   -1.7965    0.0000 C   0  0  0  0  0  0  0  0  0  0  0  0
    4.4247   -1.1658    0.0000 C   0  0  0  0  0  0  0  0  0  0  0  0
    5.2368   -1.3110    0.0000 C   0  0  0  0  0  0  0  0  0  0  0  0
    5.5171   -2.0869    0.0000 C   0  0  0  0  0  0  0  0  0  0  0  0
    4.9853   -2.7177    0.0000 C   0  0  0  0  0  0  0  0  0  0  0  0
    5.2656   -3.4936    0.0000 C   0  0  0  0  0  0  0  0  0  0  0  0
    6.0777   -3.6388    0.0000 C   0  0  0  0  0  0  0  0  0  0  0  0
    6.3580   -4.4147    0.0000 Cl  0  0  0  0  0  0  0  0  0  0  0  0
    6.6095   -3.0081    0.0000 C   0  0  0  0  0  0  0  0  0  0  0  0
    7.4216   -3.1533    0.0000 C   0  0  0  0  0  0  0  0  0  0  0  0
    7.9534   -2.5226    0.0000 C   0  0  0  0  0  0  0  0  0  0  0  0
    8.7656   -2.6678    0.0000 O   0  0  0  0  0  0  0  0  0  0  0  0
    7.6731   -1.7467    0.0000 C   0  0  0  0  0  0  0  0  0  0  0  0
    6.8610   -1.6015    0.0000 C   0  0  0  0  0  0  0  0  0  0  0  0
    6.3292   -2.2322    0.0000 C   0  0  0  0  0  0  0  0  0  0  0  0
    6.0489   -1.4562    0.0000 C   0  0  0  0  0  0  0  0  0  0  0  0
    4.1731   -2.5724    0.0000 C   0  0  0  0  0  0  0  0  0  0  0  0
    3.5218   -3.0788    0.0000 C   0  0  0  0  0  0  0  0  0  0  0  0
    2.8390   -2.6158    0.0000 C   0  0  0  0  0  0  0  0  0  0  0  0
    3.0683   -1.8233    0.0000 C   0  0  0  0  0  0  0  0  0  0  0  0
    2.3074   -1.5044    0.0000 O   0  0  0  0  0  0  0  0  0  0  0  0
    1.6508   -2.0040    0.0000 C   0  0  0  0  0  0  0  0  0  0  0  0
    1.7551   -2.8223    0.0000 C   0  0  0  0  0  0  0  0  0  0  0  0
    0.8899   -1.6851    0.0000 O   0  0  0  0  0  0  0  0  0  0  0  0
    2.9469   -1.0073    0.0000 C   0  0  0  0  0  0  0  0  0  0  0  0
    3.5929   -0.4942    0.0000 C   0  0  0  0  0  0  0  0  0  0  0  0
    2.1795   -0.7044    0.0000 O   0  0  0  0  0  0  0  0  0  0  0  0
  1  2  1  0  0  0  0
  3  2  1  0  0  0  0
  4  3  1  0  0  0  0
  5  4  1  0  0  0  0
  5  6  1  0  0  0  0
  6  7  1  0  0  0  0
  7  8  1  0  0  0  0
  8  9  1  0  0  0  0
  8 10  1  0  0  0  0
 11 10  2  0  0  0  0
 12 11  1  0  0  0  0
 12 13  2  0  0  0  0
 14 12  1  0  0  0  0
 15 14  1  0  0  0  0
 16 15  1  0  0  0  0
 10 16  1  0  0  0  0
 16  5  1  0  0  0  0
 16 17  1  0  0  0  0
 18  6  1  0  0  0  0
 18  2  1  0  0  0  0
 19 18  1  0  0  0  0
 20 19  1  0  0  0  0
 21 20  1  0  0  0  0
  2 21  1  0  0  0  0
 21 22  1  0  0  0  0
 22 23  1  0  0  0  0
 23 24  1  0  0  0  0
 23 25  2  0  0  0  0
 21 26  1  0  0  0  0
 26 27  1  0  0  0  0
 26 28  2  0  0  0  0
M  END
> <RowID>
711

> <Original_SMILES>
CC12CCC3C(CC(Cl)C4=CC(=O)CCC43C)C1CCC2(OC(C)=O)C(C)=O

> <Canonical_QSARr>
CC12CCC3C(CC(Cl)C4=CC(=O)CCC43C)C1CCC2(OC(C)=O)C(C)=O

> <InChI_Code_QSARr>
InChI=1S/C23H31ClO4/c1-13(25)23(28-14(2)26)10-7-18-16-12-20(24)19-11-15(27)5-8-21(19,3)17(16)6-9-22(18,23)4/h11,16-18,20H,5-10,12H2,1-4H3

> <InChI Key_QSARr>
DCVGANSDLNPXGO-UHFFFAOYSA-N

> <Salt_Solvent>


> <Salt_Solvent_ID>
0

> <Number of connected components>
1

$$$$
Molecule_712
  Mrv2316 01072400032D          

 21 20  0  0  0  0            999 V2000
    9.1855    6.1283    0.0000 O   0  0  0  0  0  0  0  0  0  0  0  0
    9.9000    5.7158    0.0000 C   0  0  0  0  0  0  0  0  0  0  0  0
    9.9000    4.8908    0.0000 O   0  0  0  0  0  0  0  0  0  0  0  0
   10.6145    6.1283    0.0000 C   0  0  0  0  0  0  0  0  0  0  0  0
   11.3289    5.7158    0.0000 C   0  0  0  0  0  0  0  0  0  0  0  0
   12.0434    6.1283    0.0000 C   0  0  0  0  0  0  0  0  0  0  0  0
   12.7579    5.7158    0.0000 C   0  0  0  0  0  0  0  0  0  0  0  0
   13.4724    6.1283    0.0000 C   0  0  0  0  0  0  0  0  0  0  0  0
   14.1868    5.7158    0.0000 C   0  0  0  0  0  0  0  0  0  0  0  0
   14.9013    6.1283    0.0000 C   0  0  0  0  0  0  0  0  0  0  0  0
   15.6158    5.7158    0.0000 C   0  0  0  0  0  0  0  0  0  0  0  0
   16.3302    6.1283    0.0000 C   0  0  0  0  0  0  0  0  0  0  0  0
   17.0447    5.7158    0.0000 C   0  0  0  0  0  0  0  0  0  0  0  0
   17.7592    6.1283    0.0000 C   0  0  0  0  0  0  0  0  0  0  0  0
   18.4736    5.7158    0.0000 C   0  0  0  0  0  0  0  0  0  0  0  0
   19.1881    6.1283    0.0000 C   0  0  0  0  0  0  0  0  0  0  0  0
   19.9026    5.7158    0.0000 C   0  0  0  0  0  0  0  0  0  0  0  0
   20.6171    6.1283    0.0000 C   0  0  0  0  0  0  0  0  0  0  0  0
   21.3315    5.7158    0.0000 C   0  0  0  0  0  0  0  0  0  0  0  0
   22.0460    6.1283    0.0000 C   0  0  0  0  0  0  0  0  0  0  0  0
   17.7592    6.9533    0.0000 O   0  0  0  0  0  0  0  0  0  0  0  0
  1  2  1  0  0  0  0
  2  3  2  0  0  0  0
  2  4  1  0  0  0  0
  4  5  1  0  0  0  0
  5  6  1  0  0  0  0
  6  7  1  0  0  0  0
  7  8  1  0  0  0  0
  8  9  1  0  0  0  0
  9 10  1  0  0  0  0
 10 11  1  0  0  0  0
 11 12  1  0  0  0  0
 12 13  1  0  0  0  0
 13 14  1  0  0  0  0
 14 15  1  0  0  0  0
 15 16  1  0  0  0  0
 16 17  1  0  0  0  0
 17 18  1  0  0  0  0
 18 19  1  0  0  0  0
 19 20  1  0  0  0  0
 14 21  1  0  0  0  0
M  END
> <RowID>
712

> <Original_SMILES>
[Li+].CCCCCCC(O)CCCCCCCCCCC([O-])=O

> <Canonical_QSARr>
CCCCCCC(O)CCCCCCCCCCC(O)=O

> <InChI_Code_QSARr>
InChI=1S/C18H36O3/c1-2-3-4-11-14-17(19)15-12-9-7-5-6-8-10-13-16-18(20)21/h17,19H,2-16H2,1H3,(H,20,21)

> <InChI Key_QSARr>
ULQISTXYYBZJSJ-UHFFFAOYSA-N

> <Salt_Solvent>
[Li+]

> <Salt_Solvent_ID>
30

> <Number of connected components>
2

$$$$
Molecule_713
  Mrv2316 01072400032D          

 23 24  0  0  0  0            999 V2000
    3.2161   -3.0955    0.0000 C   0  0  0  0  0  0  0  0  0  0  0  0
    3.2161   -2.2705    0.0000 C   0  0  0  0  0  0  0  0  0  0  0  0
    2.5017   -1.8580    0.0000 O   0  0  0  0  0  0  0  0  0  0  0  0
    1.7872   -2.2705    0.0000 N   0  0  0  0  0  0  0  0  0  0  0  0
    1.0727   -1.8580    0.0000 C   0  0  0  0  0  0  0  0  0  0  0  0
    1.6030   -1.2260    0.0000 C   0  0  0  0  0  0  0  0  0  0  0  0
    0.5424   -1.2260    0.0000 C   0  0  0  0  0  0  0  0  0  0  0  0
   -0.2700   -1.3693    0.0000 C   0  0  0  0  0  0  0  0  0  0  0  0
    0.3582   -2.2705    0.0000 C   0  0  0  0  0  0  0  0  0  0  0  0
    0.3582   -3.0955    0.0000 C   0  0  0  0  0  0  0  0  0  0  0  0
   -0.3562   -3.5080    0.0000 O   0  0  0  0  0  0  0  0  0  0  0  0
    1.0727   -3.5080    0.0000 C   0  0  0  0  0  0  0  0  0  0  0  0
    1.0727   -4.3330    0.0000 C   0  0  0  0  0  0  0  0  0  0  0  0
    1.7872   -3.0955    0.0000 C   0  0  0  0  0  0  0  0  0  0  0  0
    2.2244   -3.7951    0.0000 C   0  0  0  0  0  0  0  0  0  0  0  0
    2.6117   -3.1243    0.0000 C   0  0  0  0  0  0  0  0  0  0  0  0
    2.9990   -3.8527    0.0000 C   0  0  0  0  0  0  0  0  0  0  0  0
    3.9306   -1.8580    0.0000 C   0  0  0  0  0  0  0  0  0  0  0  0
    4.6451   -2.2705    0.0000 C   0  0  0  0  0  0  0  0  0  0  0  0
    5.3595   -1.8580    0.0000 C   0  0  0  0  0  0  0  0  0  0  0  0
    5.3595   -1.0330    0.0000 C   0  0  0  0  0  0  0  0  0  0  0  0
    4.6451   -0.6205    0.0000 C   0  0  0  0  0  0  0  0  0  0  0  0
    3.9306   -1.0330    0.0000 C   0  0  0  0  0  0  0  0  0  0  0  0
  1  2  1  0  0  0  0
  2  3  1  0  0  0  0
  3  4  1  0  0  0  0
  5  4  1  0  0  0  0
  5  6  1  0  0  0  0
  5  7  1  0  0  0  0
  7  8  1  0  0  0  0
  9  5  1  0  0  0  0
 10  9  1  0  0  0  0
 10 11  2  0  0  0  0
 12 10  1  0  0  0  0
 12 13  1  0  0  0  0
 14 12  1  0  0  0  0
  4 14  1  0  0  0  0
 14 15  1  0  0  0  0
 14 16  1  0  0  0  0
 16 17  1  0  0  0  0
  2 18  1  0  0  0  0
 19 18  1  0  0  0  0
 20 19  2  0  0  0  0
 21 20  1  0  0  0  0
 22 21  2  0  0  0  0
 23 22  1  0  0  0  0
 18 23  2  0  0  0  0
M  END
> <RowID>
713

> <Original_SMILES>
CC(ON1C(C)(CC(=O)C(C)C1(C)CC)CC)C1C=CC=CC=1

> <Canonical_QSARr>
CC(ON1C(C)(CC(=O)C(C)C1(C)CC)CC)C1C=CC=CC=1

> <InChI_Code_QSARr>
InChI=1S/C20H31NO2/c1-7-19(5)14-18(22)15(3)20(6,8-2)21(19)23-16(4)17-12-10-9-11-13-17/h9-13,15-16H,7-8,14H2,1-6H3

> <InChI Key_QSARr>
XNTBMMKNLWUKDH-UHFFFAOYSA-N

> <Salt_Solvent>


> <Salt_Solvent_ID>
0

> <Number of connected components>
1

$$$$
Molecule_714
  Mrv2316 01072400032D          

 12 12  0  0  0  0            999 V2000
    2.6793   -1.3406    0.0000 C   0  0  0  0  0  0  0  0  0  0  0  0
    1.9648   -0.9281    0.0000 C   0  0  0  0  0  0  0  0  0  0  0  0
    1.9648   -0.1031    0.0000 C   0  0  0  0  0  0  0  0  0  0  0  0
    1.2503    0.3094    0.0000 C   0  0  0  0  0  0  0  0  0  0  0  0
    1.2503    1.1344    0.0000 S   0  0  0  0  0  0  0  0  0  0  0  0
    1.2503    1.9594    0.0000 O   0  0  0  0  0  0  0  0  0  0  0  0
    2.0753    1.1344    0.0000 O   0  0  0  0  0  0  0  0  0  0  0  0
    0.4253    1.1344    0.0000 O   0  0  0  0  0  0  0  0  0  0  0  0
    0.5359   -0.1031    0.0000 C   0  0  0  0  0  0  0  0  0  0  0  0
   -0.1786    0.3094    0.0000 N   0  0  0  0  0  0  0  0  0  0  0  0
    0.5359   -0.9281    0.0000 C   0  0  0  0  0  0  0  0  0  0  0  0
    1.2503   -1.3406    0.0000 C   0  0  0  0  0  0  0  0  0  0  0  0
  1  2  1  0  0  0  0
  3  2  1  0  0  0  0
  4  3  2  0  0  0  0
  4  5  1  0  0  0  0
  5  6  1  0  0  0  0
  5  7  2  0  0  0  0
  5  8  2  0  0  0  0
  9  4  1  0  0  0  0
  9 10  1  0  0  0  0
 11  9  2  0  0  0  0
 12 11  1  0  0  0  0
  2 12  2  0  0  0  0
M  END
> <RowID>
714

> <Original_SMILES>
CC1C=C(C(N)=CC=1)S(O)(=O)=O

> <Canonical_QSARr>
CC1C=C(C(N)=CC=1)S(O)(=O)=O

> <InChI_Code_QSARr>
InChI=1S/C7H9NO3S/c1-5-2-3-6(8)7(4-5)12(9,10)11/h2-4H,8H2,1H3,(H,9,10,11)

> <InChI Key_QSARr>
LTPSRQRIPCVMKQ-UHFFFAOYSA-N

> <Salt_Solvent>


> <Salt_Solvent_ID>
0

> <Number of connected components>
1

$$$$
Molecule_715
  Mrv2316 01072400032D          

 20 19  0  0  0  0            999 V2000
    7.2336    5.0013    0.0000 O   0  0  0  0  0  0  0  0  0  0  0  0
    7.9481    5.4138    0.0000 C   0  0  0  0  0  0  0  0  0  0  0  0
    7.9481    6.2388    0.0000 O   0  0  0  0  0  0  0  0  0  0  0  0
    8.6625    5.0013    0.0000 C   0  0  0  0  0  0  0  0  0  0  0  0
    9.3770    5.4138    0.0000 C   0  0  0  0  0  0  0  0  0  0  0  0
   10.0915    5.0013    0.0000 C   0  0  0  0  0  0  0  0  0  0  0  0
   10.8060    5.4138    0.0000 C   0  0  0  0  0  0  0  0  0  0  0  0
   11.5204    5.0013    0.0000 C   0  0  0  0  0  0  0  0  0  0  0  0
   12.2349    5.4138    0.0000 C   0  0  0  0  0  0  0  0  0  0  0  0
   12.9494    5.0013    0.0000 C   0  0  0  0  0  0  0  0  0  0  0  0
   13.6638    5.4138    0.0000 C   0  0  0  0  0  0  0  0  0  0  0  0
   14.3783    5.0013    0.0000 C   0  0  0  0  0  0  0  0  0  0  0  0
   15.0928    5.4138    0.0000 C   0  0  0  0  0  0  0  0  0  0  0  0
   15.8072    5.0013    0.0000 C   0  0  0  0  0  0  0  0  0  0  0  0
   16.5217    5.4138    0.0000 C   0  0  0  0  0  0  0  0  0  0  0  0
   17.2362    5.0013    0.0000 C   0  0  0  0  0  0  0  0  0  0  0  0
   17.9507    5.4138    0.0000 C   0  0  0  0  0  0  0  0  0  0  0  0
   18.6651    5.0013    0.0000 C   0  0  0  0  0  0  0  0  0  0  0  0
   19.3796    5.4138    0.0000 C   0  0  0  0  0  0  0  0  0  0  0  0
   18.6651    4.1763    0.0000 C   0  0  0  0  0  0  0  0  0  0  0  0
  1  2  1  0  0  0  0
  2  3  2  0  0  0  0
  2  4  1  0  0  0  0
  4  5  1  0  0  0  0
  5  6  1  0  0  0  0
  6  7  1  0  0  0  0
  7  8  1  0  0  0  0
  8  9  1  0  0  0  0
  9 10  1  0  0  0  0
 10 11  1  0  0  0  0
 11 12  1  0  0  0  0
 12 13  1  0  0  0  0
 13 14  1  0  0  0  0
 14 15  1  0  0  0  0
 15 16  1  0  0  0  0
 16 17  1  0  0  0  0
 17 18  1  0  0  0  0
 18 19  1  0  0  0  0
 18 20  1  0  0  0  0
M  END
> <RowID>
715

> <Original_SMILES>
[Li+].CC(C)CCCCCCCCCCCCCCC([O-])=O

> <Canonical_QSARr>
CC(C)CCCCCCCCCCCCCCC(O)=O

> <InChI_Code_QSARr>
InChI=1S/C18H36O2/c1-17(2)15-13-11-9-7-5-3-4-6-8-10-12-14-16-18(19)20/h17H,3-16H2,1-2H3,(H,19,20)

> <InChI Key_QSARr>
XDOFQFKRPWOURC-UHFFFAOYSA-N

> <Salt_Solvent>
[Li+]

> <Salt_Solvent_ID>
30

> <Number of connected components>
2

$$$$
Molecule_716
  Mrv2316 01072400032D          

  8  8  0  0  0  0            999 V2000
    0.1654   -1.0853    0.0000 C   0  0  0  0  0  0  0  0  0  0  0  0
   -0.1701   -0.3317    0.0000 C   0  0  0  0  0  0  0  0  0  0  0  0
    0.3148    0.3358    0.0000 N   0  0  0  0  0  0  0  0  0  0  0  0
    1.1398    0.3358    0.0000 C   0  0  0  0  0  0  0  0  0  0  0  0
    1.3948    1.1204    0.0000 C   0  0  0  0  0  0  0  0  0  0  0  0
    0.7273    1.6053    0.0000 N   0  3  0  0  0  0  0  0  0  0  0  0
    0.7273    2.4303    0.0000 C   0  0  0  0  0  0  0  0  0  0  0  0
    0.0599    1.1204    0.0000 C   0  0  0  0  0  0  0  0  0  0  0  0
  1  2  1  0  0  0  0
  2  3  1  0  0  0  0
  4  3  1  0  0  0  0
  5  4  2  0  0  0  0
  6  5  1  0  0  0  0
  6  7  1  0  0  0  0
  8  6  2  0  0  0  0
  3  8  1  0  0  0  0
M  CHG  1   6   1
M  END
> <RowID>
716

> <Original_SMILES>
CCN1C=[N+](C)C=C1.F[B-](F)(F)F

> <Canonical_QSARr>
CCN1C=[N+](C)C=C1

> <InChI_Code_QSARr>
InChI=1S/C6H11N2/c1-3-8-5-4-7(2)6-8/h4-6H,3H2,1-2H3/q+1

> <InChI Key_QSARr>
NJMWOUFKYKNWDW-UHFFFAOYSA-N

> <Salt_Solvent>
F[B-](F)(F)F

> <Salt_Solvent_ID>
1982

> <Number of connected components>
2

$$$$
Molecule_717
  Mrv2316 01072400032D          

 20 22  0  0  0  0            999 V2000
    2.9364    0.2198    0.0000 C   0  0  0  0  0  0  0  0  0  0  0  0
    3.4214    0.8873    0.0000 N   0  3  0  0  0  0  0  0  0  0  0  0
    2.7069    1.2998    0.0000 C   0  0  0  0  0  0  0  0  0  0  0  0
    1.9924    0.8873    0.0000 C   0  0  0  0  0  0  0  0  0  0  0  0
    1.2780    1.2998    0.0000 C   0  0  0  0  0  0  0  0  0  0  0  0
    1.2780    2.1248    0.0000 C   0  0  0  0  0  0  0  0  0  0  0  0
    0.5635    2.5373    0.0000 O   0  0  0  0  0  0  0  0  0  0  0  0
    1.9924    2.5373    0.0000 O   0  0  0  0  0  0  0  0  0  0  0  0
    0.5635    0.8873    0.0000 N   0  0  0  0  0  0  0  0  0  0  0  0
    0.5635    0.0623    0.0000 C   0  0  0  0  0  0  0  0  0  0  0  0
   -0.2615    0.0623    0.0000 C   0  0  0  0  0  0  0  0  0  0  0  0
   -0.2615    0.8873    0.0000 C   0  0  0  0  0  0  0  0  0  0  0  0
   -0.8449    1.4706    0.0000 O   0  0  0  0  0  0  0  0  0  0  0  0
   -0.8449   -0.5211    0.0000 N   0  0  0  0  0  0  0  0  0  0  0  0
    1.2780   -0.3502    0.0000 S   0  0  0  0  0  0  0  0  0  0  0  0
    1.9924    0.0623    0.0000 C   0  0  0  0  0  0  0  0  0  0  0  0
    4.0345    0.3352    0.0000 C   0  0  0  0  0  0  0  0  0  0  0  0
    4.7489    0.7477    0.0000 C   0  0  0  0  0  0  0  0  0  0  0  0
    4.5774    1.5547    0.0000 C   0  0  0  0  0  0  0  0  0  0  0  0
    3.7569    1.6409    0.0000 C   0  0  0  0  0  0  0  0  0  0  0  0
  1  2  1  0  0  0  0
  2  3  1  0  0  0  0
  3  4  1  0  0  0  0
  5  4  2  0  0  0  0
  5  6  1  0  0  0  0
  6  7  2  0  0  0  0
  6  8  1  0  0  0  0
  9  5  1  0  0  0  0
  9 10  1  0  0  0  0
 10 11  1  0  0  0  0
 11 12  1  0  0  0  0
 12  9  1  0  0  0  0
 12 13  2  0  0  0  0
 11 14  1  0  0  0  0
 15 10  1  0  0  0  0
 16 15  1  0  0  0  0
  4 16  1  0  0  0  0
 17  2  1  0  0  0  0
 18 17  1  0  0  0  0
 19 18  1  0  0  0  0
 20 19  1  0  0  0  0
  2 20  1  0  0  0  0
M  CHG  1   2   1
M  END
> <RowID>
717

> <Original_SMILES>
[Cl-].C[N+]1(CCCC1)CC1CSC2C(N)C(=O)N2C=1C(O)=O

> <Canonical_QSARr>
C[N+]1(CCCC1)CC1CSC2C(N)C(=O)N2C=1C(O)=O

> <InChI_Code_QSARr>
InChI=1S/C13H19N3O3S/c1-16(4-2-3-5-16)6-8-7-20-12-9(14)11(17)15(12)10(8)13(18)19/h9,12H,2-7,14H2,1H3/p+1

> <InChI Key_QSARr>
IIVPIDBZUUAWTF-UHFFFAOYSA-O

> <Salt_Solvent>
[Cl-]

> <Salt_Solvent_ID>
170

> <Number of connected components>
2

$$$$
Molecule_719
  Mrv2316 01072400032D          

 20 19  0  0  0  0            999 V2000
    5.3328   -2.5854    0.0000 O   0  0  0  0  0  0  0  0  0  0  0  0
    4.5226   -2.7413    0.0000 C   0  0  0  0  0  0  0  0  0  0  0  0
    4.2526   -3.5209    0.0000 O   0  0  0  0  0  0  0  0  0  0  0  0
    3.9825   -2.1177    0.0000 C   0  0  0  0  0  0  0  0  0  0  0  0
    4.2526   -1.3381    0.0000 N   0  0  0  0  0  0  0  0  0  0  0  0
    3.7125   -0.7145    0.0000 C   0  0  0  0  0  0  0  0  0  0  0  0
    2.9024   -0.8704    0.0000 C   0  0  0  0  0  0  0  0  0  0  0  0
    2.6323   -1.6499    0.0000 O   0  0  0  0  0  0  0  0  0  0  0  0
    2.3623   -0.2467    0.0000 O   0  0  0  0  0  0  0  0  0  0  0  0
    5.0627   -1.1822    0.0000 C   0  0  0  0  0  0  0  0  0  0  0  0
    5.3328   -0.4027    0.0000 C   0  0  0  0  0  0  0  0  0  0  0  0
    6.1429   -0.2467    0.0000 N   0  0  0  0  0  0  0  0  0  0  0  0
    6.4129    0.5328    0.0000 C   0  0  0  0  0  0  0  0  0  0  0  0
    5.8729    1.1564    0.0000 C   0  0  0  0  0  0  0  0  0  0  0  0
    6.1429    1.9360    0.0000 O   0  0  0  0  0  0  0  0  0  0  0  0
    5.0627    1.0005    0.0000 O   0  0  0  0  0  0  0  0  0  0  0  0
    6.6830   -0.8704    0.0000 C   0  0  0  0  0  0  0  0  0  0  0  0
    7.4931   -0.7145    0.0000 C   0  0  0  0  0  0  0  0  0  0  0  0
    7.7632    0.0651    0.0000 O   0  0  0  0  0  0  0  0  0  0  0  0
    8.0332   -1.3381    0.0000 O   0  0  0  0  0  0  0  0  0  0  0  0
  1  2  1  0  0  0  0
  2  3  2  0  0  0  0
  2  4  1  0  0  0  0
  4  5  1  0  0  0  0
  5  6  1  0  0  0  0
  6  7  1  0  0  0  0
  7  8  1  0  0  0  0
  7  9  2  0  0  0  0
  5 10  1  0  0  0  0
 10 11  1  0  0  0  0
 11 12  1  0  0  0  0
 12 13  1  0  0  0  0
 13 14  1  0  0  0  0
 14 15  1  0  0  0  0
 14 16  2  0  0  0  0
 12 17  1  0  0  0  0
 17 18  1  0  0  0  0
 18 19  1  0  0  0  0
 18 20  2  0  0  0  0
M  END
> <RowID>
719

> <Original_SMILES>
[NH4+].[NH4+].[Zn+2].[O-]C(=O)CN(CC([O-])=O)CCN(CC([O-])=O)CC([O-])=O

> <Canonical_QSARr>
OC(=O)CN(CC(O)=O)CCN(CC(O)=O)CC(O)=O

> <InChI_Code_QSARr>
InChI=1S/C10H16N2O8/c13-7(14)3-11(4-8(15)16)1-2-12(5-9(17)18)6-10(19)20/h1-6H2,(H,13,14)(H,15,16)(H,17,18)(H,19,20)

> <InChI Key_QSARr>
KCXVZYZYPLLWCC-UHFFFAOYSA-N

> <Salt_Solvent>
[NH4+].[Zn+2]

> <Salt_Solvent_ID>
185

> <Number of connected components>
4

$$$$
Molecule_720
  Mrv2316 01072400032D          

 10 10  0  0  0  0            999 V2000
   -0.0000   -0.8250    0.0000 C   0  0  0  0  0  0  0  0  0  0  0  0
    0.7145   -0.4125    0.0000 C   0  0  0  0  0  0  0  0  0  0  0  0
    0.7145    0.4125    0.0000 C   0  0  0  0  0  0  0  0  0  0  0  0
    1.4289    0.8250    0.0000 C   0  0  0  0  0  0  0  0  0  0  0  0
    1.4289    1.6500    0.0000 C   0  0  0  0  0  0  0  0  0  0  0  0
    0.7145    2.0625    0.0000 N   0  3  0  0  0  0  0  0  0  0  0  0
    0.7145    2.8875    0.0000 C   0  0  0  0  0  0  0  0  0  0  0  0
   -0.0000    1.6500    0.0000 C   0  0  0  0  0  0  0  0  0  0  0  0
   -0.0000    0.8250    0.0000 C   0  0  0  0  0  0  0  0  0  0  0  0
    1.4289   -0.8250    0.0000 O   0  0  0  0  0  0  0  0  0  0  0  0
  1  2  1  0  0  0  0
  2  3  1  0  0  0  0
  4  3  2  0  0  0  0
  5  4  1  0  0  0  0
  6  5  2  0  0  0  0
  6  7  1  0  0  0  0
  8  6  1  0  0  0  0
  9  8  2  0  0  0  0
  3  9  1  0  0  0  0
  2 10  2  0  0  0  0
M  CHG  1   6   1
M  END
> <RowID>
720

> <Original_SMILES>
CC(=O)C1C=C[N+](C)=CC=1.CC1=CC=C(C=C1)S([O-])(=O)=O

> <Canonical_QSARr>
CC(=O)C1C=C[N+](C)=CC=1

> <InChI_Code_QSARr>
InChI=1S/C8H10NO/c1-7(10)8-3-5-9(2)6-4-8/h3-6H,1-2H3/q+1

> <InChI Key_QSARr>
FDKGIXCUGKPNRB-UHFFFAOYSA-N

> <Salt_Solvent>
CC1C=CC(S(=O)(=O)[O-])=CC=1

> <Salt_Solvent_ID>
3533

> <Number of connected components>
2

$$$$
Molecule_721
  Mrv2316 01072400032D          

 11 11  0  0  0  0            999 V2000
    0.7145   -1.8375    0.0000 C   0  0  0  0  0  0  0  0  0  0  0  0
    0.7145   -1.0125    0.0000 C   0  0  0  0  0  0  0  0  0  0  0  0
    1.4289   -0.6000    0.0000 C   0  0  0  0  0  0  0  0  0  0  0  0
    1.4289    0.2250    0.0000 C   0  0  0  0  0  0  0  0  0  0  0  0
    0.7145    0.6375    0.0000 C   0  0  0  0  0  0  0  0  0  0  0  0
    0.7145    1.4625    0.0000 N   0  3  0  0  0  0  0  0  0  0  0  0
   -0.0000    1.8750    0.0000 O   0  5  0  0  0  0  0  0  0  0  0  0
    1.4289    1.8750    0.0000 O   0  0  0  0  0  0  0  0  0  0  0  0
   -0.0000    0.2250    0.0000 C   0  0  0  0  0  0  0  0  0  0  0  0
   -0.0000   -0.6000    0.0000 C   0  0  0  0  0  0  0  0  0  0  0  0
   -0.7145   -1.0125    0.0000 Cl  0  0  0  0  0  0  0  0  0  0  0  0
  1  2  1  0  0  0  0
  3  2  2  0  0  0  0
  4  3  1  0  0  0  0
  5  4  2  0  0  0  0
  5  6  1  0  0  0  0
  6  7  1  0  0  0  0
  6  8  2  0  0  0  0
  9  5  1  0  0  0  0
 10  9  2  0  0  0  0
  2 10  1  0  0  0  0
 10 11  1  0  0  0  0
M  CHG  2   6   1   7  -1
M  END
> <RowID>
721

> <Original_SMILES>
CC1=CC=C(C=C1Cl)[N+]([O-])=O

> <Canonical_QSARr>
CC1=CC=C(C=C1Cl)[N+]([O-])=O

> <InChI_Code_QSARr>
InChI=1S/C7H6ClNO2/c1-5-2-3-6(9(10)11)4-7(5)8/h2-4H,1H3

> <InChI Key_QSARr>
LLYXJBROWQDVMI-UHFFFAOYSA-N

> <Salt_Solvent>


> <Salt_Solvent_ID>
0

> <Number of connected components>
1

$$$$
Molecule_722
  Mrv2316 01072400032D          

 32 31  0  0  0  0            999 V2000
    4.3974   -2.8875    0.0000 O   0  0  0  0  0  0  0  0  0  0  0  0
    3.6829   -2.4750    0.0000 P   0  0  0  0  0  0  0  0  0  0  0  0
    4.0954   -1.7605    0.0000 O   0  0  0  0  0  0  0  0  0  0  0  0
    3.2704   -3.1895    0.0000 O   0  0  0  0  0  0  0  0  0  0  0  0
    2.9684   -2.0625    0.0000 C   0  0  0  0  0  0  0  0  0  0  0  0
    2.2539   -2.4750    0.0000 N   0  0  0  0  0  0  0  0  0  0  0  0
    2.2539   -3.3000    0.0000 C   0  0  0  0  0  0  0  0  0  0  0  0
    1.5395   -3.7125    0.0000 P   0  0  0  0  0  0  0  0  0  0  0  0
    1.1270   -2.9980    0.0000 O   0  0  0  0  0  0  0  0  0  0  0  0
    1.9520   -4.4270    0.0000 O   0  0  0  0  0  0  0  0  0  0  0  0
    0.8250   -4.1250    0.0000 O   0  0  0  0  0  0  0  0  0  0  0  0
    1.5395   -2.0625    0.0000 C   0  0  0  0  0  0  0  0  0  0  0  0
    1.5395   -1.2375    0.0000 C   0  0  0  0  0  0  0  0  0  0  0  0
    0.8250   -0.8250    0.0000 N   0  0  0  0  0  0  0  0  0  0  0  0
    0.1105   -1.2375    0.0000 C   0  0  0  0  0  0  0  0  0  0  0  0
   -0.6039   -0.8250    0.0000 C   0  0  0  0  0  0  0  0  0  0  0  0
   -1.3184   -1.2375    0.0000 N   0  0  0  0  0  0  0  0  0  0  0  0
   -2.0329   -0.8250    0.0000 C   0  0  0  0  0  0  0  0  0  0  0  0
   -2.0329   -0.0000    0.0000 P   0  0  0  0  0  0  0  0  0  0  0  0
   -2.0329    0.8250    0.0000 O   0  0  0  0  0  0  0  0  0  0  0  0
   -1.2079   -0.0000    0.0000 O   0  0  0  0  0  0  0  0  0  0  0  0
   -2.8579   -0.0000    0.0000 O   0  0  0  0  0  0  0  0  0  0  0  0
   -1.3184   -2.0625    0.0000 C   0  0  0  0  0  0  0  0  0  0  0  0
   -2.0329   -2.4750    0.0000 P   0  0  0  0  0  0  0  0  0  0  0  0
   -2.4454   -1.7605    0.0000 O   0  0  0  0  0  0  0  0  0  0  0  0
   -1.6204   -3.1895    0.0000 O   0  0  0  0  0  0  0  0  0  0  0  0
   -2.7474   -2.8875    0.0000 O   0  0  0  0  0  0  0  0  0  0  0  0
    0.8250    0.0000    0.0000 C   0  0  0  0  0  0  0  0  0  0  0  0
    1.5395    0.4125    0.0000 P   0  0  0  0  0  0  0  0  0  0  0  0
    1.9520   -0.3020    0.0000 O   0  0  0  0  0  0  0  0  0  0  0  0
    1.1270    1.1270    0.0000 O   0  0  0  0  0  0  0  0  0  0  0  0
    2.2539    0.8250    0.0000 O   0  0  0  0  0  0  0  0  0  0  0  0
  1  2  1  0  0  0  0
  2  3  1  0  0  0  0
  2  4  2  0  0  0  0
  2  5  1  0  0  0  0
  5  6  1  0  0  0  0
  6  7  1  0  0  0  0
  7  8  1  0  0  0  0
  8  9  1  0  0  0  0
  8 10  1  0  0  0  0
  8 11  2  0  0  0  0
  6 12  1  0  0  0  0
 12 13  1  0  0  0  0
 13 14  1  0  0  0  0
 14 15  1  0  0  0  0
 15 16  1  0  0  0  0
 16 17  1  0  0  0  0
 17 18  1  0  0  0  0
 18 19  1  0  0  0  0
 19 20  1  0  0  0  0
 19 21  1  0  0  0  0
 19 22  2  0  0  0  0
 17 23  1  0  0  0  0
 23 24  1  0  0  0  0
 24 25  1  0  0  0  0
 24 26  1  0  0  0  0
 24 27  2  0  0  0  0
 14 28  1  0  0  0  0
 28 29  1  0  0  0  0
 29 30  1  0  0  0  0
 29 31  1  0  0  0  0
 29 32  2  0  0  0  0
M  END
> <RowID>
722

> <Original_SMILES>
[Na+].[Na+].[Na+].[Na+].[Na+].[O-]P([O-])(=O)CN(CP([O-])(O)=O)CCN(CP([O-])(O)=O)CCN(CP([O-])(O)=O)CP([O-])(O)=O

> <Canonical_QSARr>
OP(O)(=O)CN(CCN(CP(O)(O)=O)CP(O)(O)=O)CCN(CP(O)(O)=O)CP(O)(O)=O

> <InChI_Code_QSARr>
InChI=1S/C9H28N3O15P5/c13-28(14,15)5-10(1-3-11(6-29(16,17)18)7-30(19,20)21)2-4-12(8-31(22,23)24)9-32(25,26)27/h1-9H2,(H2,13,14,15)(H2,16,17,18)(H2,19,20,21)(H2,22,23,24)(H2,25,26,27)

> <InChI Key_QSARr>
DUYCTCQXNHFCSJ-UHFFFAOYSA-N

> <Salt_Solvent>
[Na+]

> <Salt_Solvent_ID>
110

> <Number of connected components>
6

$$$$
Molecule_723
  Mrv2316 01072400032D          

 28 31  0  0  0  0            999 V2000
    2.1434  -10.1062    0.0000 C   0  0  0  0  0  0  0  0  0  0  0  0
    2.1434   -9.2812    0.0000 C   0  0  0  0  0  0  0  0  0  0  0  0
    2.8579   -8.8687    0.0000 O   0  0  0  0  0  0  0  0  0  0  0  0
    2.8579   -8.0437    0.0000 C   0  0  0  0  0  0  0  0  0  0  0  0
    3.5724   -7.6312    0.0000 C   0  0  0  0  0  0  0  0  0  0  0  0
    3.5724   -6.8062    0.0000 C   0  0  0  0  0  0  0  0  0  0  0  0
    2.8579   -6.3937    0.0000 C   0  0  0  0  0  0  0  0  0  0  0  0
    2.8579   -5.5687    0.0000 C   0  0  0  0  0  0  0  0  0  0  0  0
    3.5724   -5.1562    0.0000 N   0  0  0  0  0  0  0  0  0  0  0  0
    3.5724   -4.3312    0.0000 C   0  0  0  0  0  0  0  0  0  0  0  0
    4.2868   -3.9187    0.0000 C   0  0  0  0  0  0  0  0  0  0  0  0
    5.0013   -4.3312    0.0000 C   0  0  0  0  0  0  0  0  0  0  0  0
    5.7158   -3.9187    0.0000 C   0  0  0  0  0  0  0  0  0  0  0  0
    5.7158   -3.0937    0.0000 C   0  0  0  0  0  0  0  0  0  0  0  0
    5.0013   -2.6812    0.0000 C   0  0  0  0  0  0  0  0  0  0  0  0
    4.2868   -3.0937    0.0000 C   0  0  0  0  0  0  0  0  0  0  0  0
    2.8579   -3.9187    0.0000 N   0  0  0  0  0  0  0  0  0  0  0  0
    2.1434   -4.3312    0.0000 C   0  0  0  0  0  0  0  0  0  0  0  0
    1.4289   -3.9187    0.0000 C   0  0  0  0  0  0  0  0  0  0  0  0
    1.4289   -3.0937    0.0000 C   0  0  0  0  0  0  0  0  0  0  0  0
    0.7145   -2.6812    0.0000 C   0  0  0  0  0  0  0  0  0  0  0  0
    0.0000   -3.0937    0.0000 C   0  0  0  0  0  0  0  0  0  0  0  0
    0.0000   -3.9187    0.0000 C   0  0  0  0  0  0  0  0  0  0  0  0
    0.7145   -4.3312    0.0000 C   0  0  0  0  0  0  0  0  0  0  0  0
    0.7145   -5.1562    0.0000 O   0  0  0  0  0  0  0  0  0  0  0  0
    2.1434   -5.1562    0.0000 N   0  0  0  0  0  0  0  0  0  0  0  0
    2.1434   -6.8062    0.0000 C   0  0  0  0  0  0  0  0  0  0  0  0
    2.1434   -7.6312    0.0000 C   0  0  0  0  0  0  0  0  0  0  0  0
  1  2  1  0  0  0  0
  2  3  1  0  0  0  0
  3  4  1  0  0  0  0
  5  4  1  0  0  0  0
  6  5  2  0  0  0  0
  7  6  1  0  0  0  0
  7  8  1  0  0  0  0
  9  8  1  0  0  0  0
 10  9  2  0  0  0  0
 10 11  1  0  0  0  0
 12 11  1  0  0  0  0
 13 12  2  0  0  0  0
 14 13  1  0  0  0  0
 15 14  2  0  0  0  0
 16 15  1  0  0  0  0
 11 16  2  0  0  0  0
 17 10  1  0  0  0  0
 18 17  2  0  0  0  0
 18 19  1  0  0  0  0
 20 19  1  0  0  0  0
 21 20  2  0  0  0  0
 22 21  1  0  0  0  0
 23 22  2  0  0  0  0
 24 23  1  0  0  0  0
 19 24  2  0  0  0  0
 24 25  1  0  0  0  0
 26 18  1  0  0  0  0
  8 26  2  0  0  0  0
 27  7  2  0  0  0  0
 28 27  1  0  0  0  0
  4 28  2  0  0  0  0
M  END
> <RowID>
723

> <Original_SMILES>
CCOC1C=CC(=CC=1)C1N=C(N=C(N=1)C1C=CC=CC=1O)C1C=CC=CC=1

> <Canonical_QSARr>
CCOC1C=CC(=CC=1)C1N=C(N=C(N=1)C1C=CC=CC=1O)C1C=CC=CC=1

> <InChI_Code_QSARr>
InChI=1S/C23H19N3O2/c1-2-28-18-14-12-17(13-15-18)22-24-21(16-8-4-3-5-9-16)25-23(26-22)19-10-6-7-11-20(19)27/h3-15,27H,2H2,1H3

> <InChI Key_QSARr>
PWWRPPKIWLDSIM-UHFFFAOYSA-N

> <Salt_Solvent>


> <Salt_Solvent_ID>
0

> <Number of connected components>
1

$$$$
Molecule_724
  Mrv2316 01072400032D          

 16 17  0  0  0  0            999 V2000
    2.1434   -2.4750    0.0000 C   0  0  0  0  0  0  0  0  0  0  0  0
    1.4289   -2.8875    0.0000 C   0  0  0  0  0  0  0  0  0  0  0  0
    0.7145   -2.4750    0.0000 O   0  0  0  0  0  0  0  0  0  0  0  0
    0.0000   -2.8875    0.0000 C   0  0  0  0  0  0  0  0  0  0  0  0
   -0.7145   -2.4750    0.0000 C   0  0  0  0  0  0  0  0  0  0  0  0
   -1.4289   -2.8875    0.0000 C   0  0  0  0  0  0  0  0  0  0  0  0
   -1.4289   -3.7125    0.0000 C   0  0  0  0  0  0  0  0  0  0  0  0
   -0.7145   -4.1250    0.0000 C   0  0  0  0  0  0  0  0  0  0  0  0
    0.0000   -3.7125    0.0000 C   0  0  0  0  0  0  0  0  0  0  0  0
    2.8579   -2.8875    0.0000 O   0  0  0  0  0  0  0  0  0  0  0  0
    3.5724   -2.4750    0.0000 C   0  0  0  0  0  0  0  0  0  0  0  0
    4.2868   -2.8875    0.0000 C   0  0  0  0  0  0  0  0  0  0  0  0
    5.0013   -2.4750    0.0000 C   0  0  0  0  0  0  0  0  0  0  0  0
    5.0013   -1.6500    0.0000 C   0  0  0  0  0  0  0  0  0  0  0  0
    4.2868   -1.2375    0.0000 C   0  0  0  0  0  0  0  0  0  0  0  0
    3.5724   -1.6500    0.0000 C   0  0  0  0  0  0  0  0  0  0  0  0
  1  2  1  0  0  0  0
  2  3  1  0  0  0  0
  3  4  1  0  0  0  0
  5  4  1  0  0  0  0
  6  5  2  0  0  0  0
  7  6  1  0  0  0  0
  8  7  2  0  0  0  0
  9  8  1  0  0  0  0
  4  9  2  0  0  0  0
  1 10  1  0  0  0  0
 10 11  1  0  0  0  0
 12 11  1  0  0  0  0
 13 12  2  0  0  0  0
 14 13  1  0  0  0  0
 15 14  2  0  0  0  0
 16 15  1  0  0  0  0
 11 16  2  0  0  0  0
M  END
> <RowID>
724

> <Original_SMILES>
C(COC1C=CC=CC=1)OC1C=CC=CC=1

> <Canonical_QSARr>
C(COC1C=CC=CC=1)OC1C=CC=CC=1

> <InChI_Code_QSARr>
InChI=1S/C14H14O2/c1-3-7-13(8-4-1)15-11-12-16-14-9-5-2-6-10-14/h1-10H,11-12H2

> <InChI Key_QSARr>
XCSGHNKDXGYELG-UHFFFAOYSA-N

> <Salt_Solvent>


> <Salt_Solvent_ID>
0

> <Number of connected components>
1

$$$$
Molecule_725
  Mrv2316 01072400032D          

 15 14  0  0  0  0            999 V2000
    2.9980    2.5559    0.0000 O   0  0  0  0  0  0  0  0  0  0  0  0
    3.7125    2.1434    0.0000 C   0  0  0  0  0  0  0  0  0  0  0  0
    3.7125    1.3184    0.0000 O   0  0  0  0  0  0  0  0  0  0  0  0
    4.4270    2.5559    0.0000 C   0  0  0  0  0  0  0  0  0  0  0  0
    5.1414    2.1434    0.0000 C   0  0  0  0  0  0  0  0  0  0  0  0
    5.8559    2.5559    0.0000 C   0  0  0  0  0  0  0  0  0  0  0  0
    6.5704    2.1434    0.0000 C   0  0  0  0  0  0  0  0  0  0  0  0
    7.2849    2.5559    0.0000 C   0  0  0  0  0  0  0  0  0  0  0  0
    7.9993    2.1434    0.0000 C   0  0  0  0  0  0  0  0  0  0  0  0
    8.7138    2.5559    0.0000 O   0  0  0  0  0  0  0  0  0  0  0  0
    7.2849    3.3809    0.0000 O   0  0  0  0  0  0  0  0  0  0  0  0
    6.5704    1.3184    0.0000 O   0  0  0  0  0  0  0  0  0  0  0  0
    5.8559    3.3809    0.0000 O   0  0  0  0  0  0  0  0  0  0  0  0
    5.1414    1.3184    0.0000 O   0  0  0  0  0  0  0  0  0  0  0  0
    4.4270    3.3809    0.0000 O   0  0  0  0  0  0  0  0  0  0  0  0
  1  2  1  0  0  0  0
  2  3  2  0  0  0  0
  2  4  1  0  0  0  0
  4  5  1  0  0  0  0
  5  6  1  0  0  0  0
  6  7  1  0  0  0  0
  7  8  1  0  0  0  0
  8  9  1  0  0  0  0
  9 10  1  0  0  0  0
  8 11  1  0  0  0  0
  7 12  1  0  0  0  0
  6 13  1  0  0  0  0
  5 14  1  0  0  0  0
  4 15  1  0  0  0  0
M  END
> <RowID>
725

> <Original_SMILES>
[Na+].[O-]C(=O)C(O)C(O)C(O)C(O)C(O)CO

> <Canonical_QSARr>
OCC(O)C(O)C(O)C(O)C(O)C(O)=O

> <InChI_Code_QSARr>
InChI=1S/C7H14O8/c8-1-2(9)3(10)4(11)5(12)6(13)7(14)15/h2-6,8-13H,1H2,(H,14,15)

> <InChI Key_QSARr>
KWMLJOLKUYYJFJ-UHFFFAOYSA-N

> <Salt_Solvent>
[Na+]

> <Salt_Solvent_ID>
110

> <Number of connected components>
2

$$$$
Molecule_726
  Mrv2316 01072400032D          

 33 33  0  0  0  0            999 V2000
   -3.2476    5.1000    0.0000 O   0  0  0  0  0  0  0  0  0  0  0  0
   -3.2476    4.2750    0.0000 C   0  0  0  0  0  0  0  0  0  0  0  0
   -3.9621    3.8625    0.0000 O   0  0  0  0  0  0  0  0  0  0  0  0
   -2.5331    3.8625    0.0000 C   0  0  0  0  0  0  0  0  0  0  0  0
   -2.5331    3.0375    0.0000 C   0  0  0  0  0  0  0  0  0  0  0  0
   -1.8187    2.6250    0.0000 C   0  0  0  0  0  0  0  0  0  0  0  0
   -1.8187    1.8000    0.0000 C   0  0  0  0  0  0  0  0  0  0  0  0
   -1.1042    1.3875    0.0000 C   0  0  0  0  0  0  0  0  0  0  0  0
   -1.1042    0.5625    0.0000 N   0  0  0  0  0  0  0  0  0  0  0  0
   -0.3897    0.1500    0.0000 C   0  0  0  0  0  0  0  0  0  0  0  0
   -0.3897   -0.6750    0.0000 N   0  0  0  0  0  0  0  0  0  0  0  0
    0.3248   -1.0875    0.0000 C   0  0  0  0  0  0  0  0  0  0  0  0
    0.3248   -1.9125    0.0000 N   0  0  0  0  0  0  0  0  0  0  0  0
    1.0392   -2.3250    0.0000 C   0  0  0  0  0  0  0  0  0  0  0  0
    1.0392   -3.1500    0.0000 C   0  0  0  0  0  0  0  0  0  0  0  0
    1.7537   -3.5625    0.0000 C   0  0  0  0  0  0  0  0  0  0  0  0
    1.7537   -4.3875    0.0000 C   0  0  0  0  0  0  0  0  0  0  0  0
    2.4682   -4.8000    0.0000 C   0  0  0  0  0  0  0  0  0  0  0  0
    2.4682   -5.6250    0.0000 C   0  0  0  0  0  0  0  0  0  0  0  0
    3.1826   -6.0375    0.0000 O   0  0  0  0  0  0  0  0  0  0  0  0
    1.7537   -6.0375    0.0000 O   0  0  0  0  0  0  0  0  0  0  0  0
    1.0392   -0.6750    0.0000 N   0  0  0  0  0  0  0  0  0  0  0  0
    1.0392    0.1500    0.0000 C   0  0  0  0  0  0  0  0  0  0  0  0
    1.7537    0.5625    0.0000 N   0  0  0  0  0  0  0  0  0  0  0  0
    2.4682    0.1500    0.0000 C   0  0  0  0  0  0  0  0  0  0  0  0
    3.1826    0.5625    0.0000 C   0  0  0  0  0  0  0  0  0  0  0  0
    3.8971    0.1500    0.0000 C   0  0  0  0  0  0  0  0  0  0  0  0
    4.6116    0.5625    0.0000 C   0  0  0  0  0  0  0  0  0  0  0  0
    5.3260    0.1500    0.0000 C   0  0  0  0  0  0  0  0  0  0  0  0
    6.0405    0.5625    0.0000 C   0  0  0  0  0  0  0  0  0  0  0  0
    6.0405    1.3875    0.0000 O   0  0  0  0  0  0  0  0  0  0  0  0
    6.7550    0.1500    0.0000 O   0  0  0  0  0  0  0  0  0  0  0  0
    0.3248    0.5625    0.0000 N   0  0  0  0  0  0  0  0  0  0  0  0
  1  2  1  0  0  0  0
  2  3  2  0  0  0  0
  2  4  1  0  0  0  0
  4  5  1  0  0  0  0
  5  6  1  0  0  0  0
  6  7  1  0  0  0  0
  7  8  1  0  0  0  0
  8  9  1  0  0  0  0
  9 10  1  0  0  0  0
 11 10  1  0  0  0  0
 12 11  2  0  0  0  0
 12 13  1  0  0  0  0
 13 14  1  0  0  0  0
 14 15  1  0  0  0  0
 15 16  1  0  0  0  0
 16 17  1  0  0  0  0
 17 18  1  0  0  0  0
 18 19  1  0  0  0  0
 19 20  1  0  0  0  0
 19 21  2  0  0  0  0
 22 12  1  0  0  0  0
 23 22  2  0  0  0  0
 23 24  1  0  0  0  0
 24 25  1  0  0  0  0
 25 26  1  0  0  0  0
 26 27  1  0  0  0  0
 27 28  1  0  0  0  0
 28 29  1  0  0  0  0
 29 30  1  0  0  0  0
 30 31  1  0  0  0  0
 30 32  2  0  0  0  0
 33 23  1  0  0  0  0
 10 33  2  0  0  0  0
M  END
> <RowID>
726

> <Original_SMILES>
[Na+].[Na+].[Na+].[O-]C(=O)CCCCCNC1N=C(NCCCCCC([O-])=O)N=C(NCCCCCC([O-])=O)N=1

> <Canonical_QSARr>
OC(=O)CCCCCNC1N=C(NCCCCCC(O)=O)N=C(NCCCCCC(O)=O)N=1

> <InChI_Code_QSARr>
InChI=1S/C21H36N6O6/c28-16(29)10-4-1-7-13-22-19-25-20(23-14-8-2-5-11-17(30)31)27-21(26-19)24-15-9-3-6-12-18(32)33/h1-15H2,(H,28,29)(H,30,31)(H,32,33)(H3,22,23,24,25,26,27)

> <InChI Key_QSARr>
BKKWPPMEXIXECW-UHFFFAOYSA-N

> <Salt_Solvent>
[Na+]

> <Salt_Solvent_ID>
110

> <Number of connected components>
4

$$$$
Molecule_727
  Mrv2316 01072400032D          

  6  6  0  0  0  0            999 V2000
    1.4289    0.8250    0.0000 C   0  0  0  0  0  0  0  0  0  0  0  0
    0.7145    1.2375    0.0000 N   0  0  0  0  0  0  0  0  0  0  0  0
   -0.0000    0.8250    0.0000 C   0  0  0  0  0  0  0  0  0  0  0  0
   -0.0000    0.0000    0.0000 C   0  0  0  0  0  0  0  0  0  0  0  0
    0.7145   -0.4125    0.0000 O   0  0  0  0  0  0  0  0  0  0  0  0
    1.4289   -0.0000    0.0000 C   0  0  0  0  0  0  0  0  0  0  0  0
  2  1  1  0  0  0  0
  3  2  1  0  0  0  0
  4  3  1  0  0  0  0
  5  4  1  0  0  0  0
  6  5  1  0  0  0  0
  1  6  1  0  0  0  0
M  END
> <RowID>
727

> <Original_SMILES>
NS(O)(=O)=O.C1COCCN1

> <Canonical_QSARr>
C1COCCN1

> <InChI_Code_QSARr>
InChI=1S/C4H9NO/c1-3-6-4-2-5-1/h5H,1-4H2

> <InChI Key_QSARr>
YNAVUWVOSKDBBP-UHFFFAOYSA-N

> <Salt_Solvent>
NS(=O)(=O)O

> <Salt_Solvent_ID>
1989

> <Number of connected components>
2

$$$$
Molecule_728
  Mrv2316 01072400032D          

 36 38  0  0  0  0            999 V2000
   -2.1740   -1.1565    0.0000 C   0  0  0  0  0  0  0  0  0  0  0  0
   -1.6219   -1.7696    0.0000 C   0  0  0  0  0  0  0  0  0  0  0  0
   -1.8769   -2.5542    0.0000 O   0  0  0  0  0  0  0  0  0  0  0  0
   -0.8150   -1.5980    0.0000 O   0  0  0  0  0  0  0  0  0  0  0  0
   -0.2629   -2.2111    0.0000 C   0  0  0  0  0  0  0  0  0  0  0  0
   -0.5179   -2.9957    0.0000 C   0  0  0  0  0  0  0  0  0  0  0  0
    0.0342   -3.6088    0.0000 C   0  0  0  0  0  0  0  0  0  0  0  0
    0.8411   -3.4373    0.0000 C   0  0  0  0  0  0  0  0  0  0  0  0
    1.3932   -4.0504    0.0000 C   0  0  0  0  0  0  0  0  0  0  0  0
    2.0063   -3.4984    0.0000 C   0  0  0  0  0  0  0  0  0  0  0  0
    0.7801   -4.6024    0.0000 C   0  0  0  0  0  0  0  0  0  0  0  0
    1.9452   -4.6635    0.0000 C   0  0  0  0  0  0  0  0  0  0  0  0
    1.6903   -5.4481    0.0000 C   0  0  0  0  0  0  0  0  0  0  0  0
    1.4353   -6.2327    0.0000 C   0  0  0  0  0  0  0  0  0  0  0  0
    2.4749   -5.7031    0.0000 C   0  0  0  0  0  0  0  0  0  0  0  0
    0.9056   -5.1932    0.0000 C   0  0  0  0  0  0  0  0  0  0  0  0
    1.0961   -2.6527    0.0000 C   0  0  0  0  0  0  0  0  0  0  0  0
    0.5440   -2.0396    0.0000 C   0  0  0  0  0  0  0  0  0  0  0  0
    0.7990   -1.2550    0.0000 C   0  0  0  0  0  0  0  0  0  0  0  0
    0.3141   -0.5875    0.0000 C   0  0  0  0  0  0  0  0  0  0  0  0
   -0.5109   -0.5875    0.0000 O   0  0  0  0  0  0  0  0  0  0  0  0
    0.7990    0.0799    0.0000 O   0  0  0  0  0  0  0  0  0  0  0  0
    1.5836   -0.1750    0.0000 C   0  0  0  0  0  0  0  0  0  0  0  0
    2.2981    0.2375    0.0000 C   0  0  0  0  0  0  0  0  0  0  0  0
    3.0125   -0.1750    0.0000 C   0  0  0  0  0  0  0  0  0  0  0  0
    3.0125   -1.0000    0.0000 C   0  0  0  0  0  0  0  0  0  0  0  0
    2.2981   -1.4125    0.0000 C   0  0  0  0  0  0  0  0  0  0  0  0
    1.5836   -1.0000    0.0000 C   0  0  0  0  0  0  0  0  0  0  0  0
    3.7270   -1.4125    0.0000 C   0  0  0  0  0  0  0  0  0  0  0  0
    3.3145   -2.1270    0.0000 C   0  0  0  0  0  0  0  0  0  0  0  0
    4.1395   -0.6981    0.0000 C   0  0  0  0  0  0  0  0  0  0  0  0
    4.4415   -1.8250    0.0000 C   0  0  0  0  0  0  0  0  0  0  0  0
    5.1560   -1.4125    0.0000 C   0  0  0  0  0  0  0  0  0  0  0  0
    5.8704   -1.0000    0.0000 C   0  0  0  0  0  0  0  0  0  0  0  0
    5.5685   -2.1270    0.0000 C   0  0  0  0  0  0  0  0  0  0  0  0
    4.7435   -0.6981    0.0000 C   0  0  0  0  0  0  0  0  0  0  0  0
  1  2  1  0  0  0  0
  2  3  2  0  0  0  0
  2  4  1  0  0  0  0
  4  5  1  0  0  0  0
  6  5  2  0  0  0  0
  7  6  1  0  0  0  0
  8  7  2  0  0  0  0
  8  9  1  0  0  0  0
  9 10  1  0  0  0  0
  9 11  1  0  0  0  0
  9 12  1  0  0  0  0
 12 13  1  0  0  0  0
 13 14  1  0  0  0  0
 13 15  1  0  0  0  0
 13 16  1  0  0  0  0
 17  8  1  0  0  0  0
 18 17  2  0  0  0  0
  5 18  1  0  0  0  0
 18 19  1  0  0  0  0
 20 19  1  0  0  0  0
 20 21  2  0  0  0  0
 22 20  1  0  0  0  0
 23 22  1  0  0  0  0
 23 24  1  0  0  0  0
 24 25  2  0  0  0  0
 25 26  1  0  0  0  0
 26 27  2  0  0  0  0
 27 28  1  0  0  0  0
 19 28  1  0  0  0  0
 28 23  2  0  0  0  0
 26 29  1  0  0  0  0
 29 30  1  0  0  0  0
 29 31  1  0  0  0  0
 29 32  1  0  0  0  0
 32 33  1  0  0  0  0
 33 34  1  0  0  0  0
 33 35  1  0  0  0  0
 33 36  1  0  0  0  0
M  END
> <RowID>
728

> <Original_SMILES>
CC(=O)OC1=CC=C(C=C1C1C(=O)OC2C=CC(=CC=21)C(C)(C)CC(C)(C)C)C(C)(C)CC(C)(C)C

> <Canonical_QSARr>
CC(=O)OC1=CC=C(C=C1C1C(=O)OC2C=CC(=CC=21)C(C)(C)CC(C)(C)C)C(C)(C)CC(C)(C)C

> <InChI_Code_QSARr>
InChI=1S/C32H44O4/c1-20(33)35-25-14-12-21(31(8,9)18-29(2,3)4)16-23(25)27-24-17-22(13-15-26(24)36-28(27)34)32(10,11)19-30(5,6)7/h12-17,27H,18-19H2,1-11H3

> <InChI Key_QSARr>
UHPDROGOQWZCNC-UHFFFAOYSA-N

> <Salt_Solvent>


> <Salt_Solvent_ID>
0

> <Number of connected components>
1

$$$$
Molecule_729
  Mrv2316 01072400032D          

 19 19  0  0  0  0            999 V2000
    2.3690   -2.8875    0.0000 N   0  0  0  0  0  0  0  0  0  0  0  0
    1.6546   -2.4750    0.0000 C   0  0  0  0  0  0  0  0  0  0  0  0
    1.6546   -1.6500    0.0000 C   0  0  0  0  0  0  0  0  0  0  0  0
    0.9401   -1.2375    0.0000 C   0  0  0  0  0  0  0  0  0  0  0  0
    0.9401   -0.4125    0.0000 Cl  0  0  0  0  0  0  0  0  0  0  0  0
    0.2256   -1.6500    0.0000 C   0  0  0  0  0  0  0  0  0  0  0  0
   -0.4889   -1.2375    0.0000 O   0  0  0  0  0  0  0  0  0  0  0  0
   -0.4889   -0.4125    0.0000 C   0  0  0  0  0  0  0  0  0  0  0  0
    0.3361   -0.4125    0.0000 F   0  0  0  0  0  0  0  0  0  0  0  0
   -1.3139   -0.4125    0.0000 F   0  0  0  0  0  0  0  0  0  0  0  0
   -0.4889    0.4125    0.0000 C   0  0  0  0  0  0  0  0  0  0  0  0
    0.2256    0.8250    0.0000 F   0  0  0  0  0  0  0  0  0  0  0  0
   -1.2033    0.8250    0.0000 C   0  0  0  0  0  0  0  0  0  0  0  0
   -1.9178    1.2375    0.0000 F   0  0  0  0  0  0  0  0  0  0  0  0
   -0.7908    1.5395    0.0000 F   0  0  0  0  0  0  0  0  0  0  0  0
   -1.6158    0.1105    0.0000 F   0  0  0  0  0  0  0  0  0  0  0  0
    0.2256   -2.4750    0.0000 C   0  0  0  0  0  0  0  0  0  0  0  0
    0.9401   -2.8875    0.0000 C   0  0  0  0  0  0  0  0  0  0  0  0
    0.9401   -3.7125    0.0000 Cl  0  0  0  0  0  0  0  0  0  0  0  0
  1  2  1  0  0  0  0
  3  2  2  0  0  0  0
  4  3  1  0  0  0  0
  4  5  1  0  0  0  0
  6  4  2  0  0  0  0
  6  7  1  0  0  0  0
  7  8  1  0  0  0  0
  8  9  1  0  0  0  0
  8 10  1  0  0  0  0
  8 11  1  0  0  0  0
 11 12  1  0  0  0  0
 11 13  1  0  0  0  0
 13 14  1  0  0  0  0
 13 15  1  0  0  0  0
 13 16  1  0  0  0  0
 17  6  1  0  0  0  0
 18 17  2  0  0  0  0
  2 18  1  0  0  0  0
 18 19  1  0  0  0  0
M  END
> <RowID>
729

> <Original_SMILES>
NC1=CC(Cl)=C(C=C1Cl)OC(F)(F)C(F)C(F)(F)F

> <Canonical_QSARr>
NC1=CC(Cl)=C(C=C1Cl)OC(F)(F)C(F)C(F)(F)F

> <InChI_Code_QSARr>
InChI=1S/C9H5Cl2F6NO/c10-3-2-6(4(11)1-5(3)18)19-9(16,17)7(12)8(13,14)15/h1-2,7H,18H2

> <InChI Key_QSARr>
PIANCHDAVNRLDV-UHFFFAOYSA-N

> <Salt_Solvent>


> <Salt_Solvent_ID>
0

> <Number of connected components>
1

$$$$
Molecule_730
  Mrv2316 01072400032D          

 15 15  0  0  0  0            999 V2000
    2.5721   -1.8150    0.0000 C   0  0  0  0  0  0  0  0  0  0  0  0
    1.8576   -1.4025    0.0000 C   0  0  0  0  0  0  0  0  0  0  0  0
    1.8576   -0.5775    0.0000 N   0  0  0  0  0  0  0  0  0  0  0  0
    1.1432   -0.1650    0.0000 C   0  0  0  0  0  0  0  0  0  0  0  0
    1.1432    0.6600    0.0000 N   0  0  0  0  0  0  0  0  0  0  0  0
    0.4287    1.0725    0.0000 C   0  0  0  0  0  0  0  0  0  0  0  0
    0.4287    1.8975    0.0000 N   0  0  0  0  0  0  0  0  0  0  0  0
    1.1432    2.3100    0.0000 C   0  0  0  0  0  0  0  0  0  0  0  0
    1.1432    3.1350    0.0000 C   0  0  0  0  0  0  0  0  0  0  0  0
    1.8576    1.8975    0.0000 C   0  0  0  0  0  0  0  0  0  0  0  0
   -0.2858    0.6600    0.0000 N   0  0  0  0  0  0  0  0  0  0  0  0
   -0.2858   -0.1650    0.0000 C   0  0  0  0  0  0  0  0  0  0  0  0
   -1.0003   -0.5775    0.0000 S   0  0  0  0  0  0  0  0  0  0  0  0
   -1.0003   -1.4025    0.0000 C   0  0  0  0  0  0  0  0  0  0  0  0
    0.4287   -0.5775    0.0000 N   0  0  0  0  0  0  0  0  0  0  0  0
  1  2  1  0  0  0  0
  2  3  1  0  0  0  0
  3  4  1  0  0  0  0
  5  4  1  0  0  0  0
  6  5  2  0  0  0  0
  6  7  1  0  0  0  0
  7  8  1  0  0  0  0
  8  9  1  0  0  0  0
  8 10  1  0  0  0  0
 11  6  1  0  0  0  0
 12 11  2  0  0  0  0
 12 13  1  0  0  0  0
 13 14  1  0  0  0  0
 15 12  1  0  0  0  0
  4 15  2  0  0  0  0
M  END
> <RowID>
730

> <Original_SMILES>
CCNC1N=C(NC(C)C)N=C(N=1)SC

> <Canonical_QSARr>
CCNC1N=C(NC(C)C)N=C(N=1)SC

> <InChI_Code_QSARr>
InChI=1S/C9H17N5S/c1-5-10-7-12-8(11-6(2)3)14-9(13-7)15-4/h6H,5H2,1-4H3,(H2,10,11,12,13,14)

> <InChI Key_QSARr>
RQVYBGPQFYCBGX-UHFFFAOYSA-N

> <Salt_Solvent>


> <Salt_Solvent_ID>
0

> <Number of connected components>
1

$$$$
Molecule_731
  Mrv2316 01072400032D          

 10 11  0  0  0  0            999 V2000
   -0.2549    0.7846    0.0000 O   0  0  0  0  0  0  0  0  0  0  0  0
   -0.0000    0.0000    0.0000 C   0  0  0  0  0  0  0  0  0  0  0  0
   -0.4849   -0.6674    0.0000 C   0  0  0  0  0  0  0  0  0  0  0  0
   -0.0000   -1.3349    0.0000 O   0  0  0  0  0  0  0  0  0  0  0  0
    0.7846   -1.0799    0.0000 C   0  0  0  0  0  0  0  0  0  0  0  0
    0.7846   -0.2549    0.0000 C   0  0  0  0  0  0  0  0  0  0  0  0
    1.5692    0.0000    0.0000 O   0  0  0  0  0  0  0  0  0  0  0  0
    2.0542   -0.6674    0.0000 C   0  0  0  0  0  0  0  0  0  0  0  0
    1.5692   -1.3349    0.0000 C   0  0  0  0  0  0  0  0  0  0  0  0
    1.8242   -2.1195    0.0000 O   0  0  0  0  0  0  0  0  0  0  0  0
  1  2  1  0  0  0  0
  3  2  1  0  0  0  0
  4  3  1  0  0  0  0
  5  4  1  0  0  0  0
  5  6  1  0  0  0  0
  2  6  1  0  0  0  0
  6  7  1  0  0  0  0
  7  8  1  0  0  0  0
  8  9  1  0  0  0  0
  9  5  1  0  0  0  0
  9 10  1  0  0  0  0
M  END
> <RowID>
731

> <Original_SMILES>
OC1COC2C1OCC2O

> <Canonical_QSARr>
OC1COC2C1OCC2O

> <InChI_Code_QSARr>
InChI=1S/C6H10O4/c7-3-1-9-6-4(8)2-10-5(3)6/h3-8H,1-2H2

> <InChI Key_QSARr>
KLDXJTOLSGUMSJ-UHFFFAOYSA-N

> <Salt_Solvent>


> <Salt_Solvent_ID>
0

> <Number of connected components>
1

$$$$
Molecule_732
  Mrv2316 01072400032D          

 11 11  0  0  0  0            999 V2000
    2.2733    1.1625    0.0000 N   0  0  0  0  0  0  0  0  0  0  0  0
    1.5588    1.5750    0.0000 C   0  0  0  0  0  0  0  0  0  0  0  0
    1.5588    2.4000    0.0000 O   0  0  0  0  0  0  0  0  0  0  0  0
    0.8444    1.1625    0.0000 C   0  0  0  0  0  0  0  0  0  0  0  0
    0.1299    1.5750    0.0000 C   0  0  0  0  0  0  0  0  0  0  0  0
    0.1299    2.4000    0.0000 F   0  0  0  0  0  0  0  0  0  0  0  0
   -0.5846    1.1625    0.0000 C   0  0  0  0  0  0  0  0  0  0  0  0
   -0.5846    0.3375    0.0000 C   0  0  0  0  0  0  0  0  0  0  0  0
    0.1299   -0.0750    0.0000 C   0  0  0  0  0  0  0  0  0  0  0  0
    0.8444    0.3375    0.0000 C   0  0  0  0  0  0  0  0  0  0  0  0
    1.5588   -0.0750    0.0000 F   0  0  0  0  0  0  0  0  0  0  0  0
  1  2  1  0  0  0  0
  2  3  2  0  0  0  0
  2  4  1  0  0  0  0
  5  4  1  0  0  0  0
  5  6  1  0  0  0  0
  7  5  2  0  0  0  0
  8  7  1  0  0  0  0
  9  8  2  0  0  0  0
 10  9  1  0  0  0  0
  4 10  2  0  0  0  0
 10 11  1  0  0  0  0
M  END
> <RowID>
732

> <Original_SMILES>
NC(=O)C1C(F)=CC=CC=1F

> <Canonical_QSARr>
NC(=O)C1C(F)=CC=CC=1F

> <InChI_Code_QSARr>
InChI=1S/C7H5F2NO/c8-4-2-1-3-5(9)6(4)7(10)11/h1-3H,(H2,10,11)

> <InChI Key_QSARr>
AVRQBXVUUXHRMY-UHFFFAOYSA-N

> <Salt_Solvent>


> <Salt_Solvent_ID>
0

> <Number of connected components>
1

$$$$
Molecule_733
  Mrv2316 01072400032D          

 10 10  0  0  0  0            999 V2000
    0.7145   -2.0625    0.0000 C   0  0  0  0  0  0  0  0  0  0  0  0
    0.7145   -1.2375    0.0000 C   0  0  0  0  0  0  0  0  0  0  0  0
    1.4289   -0.8250    0.0000 C   0  0  0  0  0  0  0  0  0  0  0  0
    1.4289   -0.0000    0.0000 C   0  0  0  0  0  0  0  0  0  0  0  0
    0.7145    0.4125    0.0000 C   0  0  0  0  0  0  0  0  0  0  0  0
    0.7145    1.2375    0.0000 C   0  0  0  0  0  0  0  0  0  0  0  0
   -0.0000    1.6500    0.0000 C   0  0  0  0  0  0  0  0  0  0  0  0
    1.4289    1.6500    0.0000 O   0  0  0  0  0  0  0  0  0  0  0  0
   -0.0000   -0.0000    0.0000 C   0  0  0  0  0  0  0  0  0  0  0  0
   -0.0000   -0.8250    0.0000 C   0  0  0  0  0  0  0  0  0  0  0  0
  1  2  1  0  0  0  0
  3  2  1  0  0  0  0
  4  3  2  0  0  0  0
  5  4  1  0  0  0  0
  5  6  1  0  0  0  0
  6  7  1  0  0  0  0
  6  8  2  0  0  0  0
  9  5  2  0  0  0  0
 10  9  1  0  0  0  0
  2 10  2  0  0  0  0
M  END
> <RowID>
733

> <Original_SMILES>
CC1C=CC(=CC=1)C(C)=O

> <Canonical_QSARr>
CC1C=CC(=CC=1)C(C)=O

> <InChI_Code_QSARr>
InChI=1S/C9H10O/c1-7-3-5-9(6-4-7)8(2)10/h3-6H,1-2H3

> <InChI Key_QSARr>
GNKZMNRKLCTJAY-UHFFFAOYSA-N

> <Salt_Solvent>


> <Salt_Solvent_ID>
0

> <Number of connected components>
1

$$$$
Molecule_734
  Mrv2316 01072400032D          

  4  3  0  0  0  0            999 V2000
    1.2375    0.7145    0.0000 O   0  0  0  0  0  0  0  0  0  0  0  0
    0.8250   -0.0000    0.0000 C   0  0  0  0  0  0  0  0  0  0  0  0
    1.2375   -0.7145    0.0000 O   0  0  0  0  0  0  0  0  0  0  0  0
    0.0000   -0.0000    0.0000 C   0  0  0  0  0  0  0  0  0  0  0  0
  1  2  1  0  0  0  0
  2  3  2  0  0  0  0
  2  4  1  0  0  0  0
M  END
> <RowID>
734

> <Original_SMILES>
[K+].CC([O-])=O

> <Canonical_QSARr>
CC(O)=O

> <InChI_Code_QSARr>
InChI=1S/C2H4O2/c1-2(3)4/h1H3,(H,3,4)

> <InChI Key_QSARr>
QTBSBXVTEAMEQO-UHFFFAOYSA-N

> <Salt_Solvent>
[K+]

> <Salt_Solvent_ID>
190

> <Number of connected components>
2

$$$$
Molecule_735
  Mrv2316 01072400032D          

 27 29  0  0  0  0            999 V2000
    3.5456   -1.6459    0.0000 C   0  0  0  0  0  0  0  0  0  0  0  0
    3.0607   -0.9785    0.0000 C   0  0  0  0  0  0  0  0  0  0  0  0
    2.2402   -1.0647    0.0000 O   0  0  0  0  0  0  0  0  0  0  0  0
    1.7552   -0.3973    0.0000 C   0  0  0  0  0  0  0  0  0  0  0  0
    2.0102    0.3873    0.0000 N   0  0  0  0  0  0  0  0  0  0  0  0
    1.3427    0.8723    0.0000 N   0  0  0  0  0  0  0  0  0  0  0  0
    1.3427    1.6973    0.0000 C   0  0  0  0  0  0  0  0  0  0  0  0
    2.0572    2.1098    0.0000 C   0  0  0  0  0  0  0  0  0  0  0  0
    2.0572    2.9348    0.0000 C   0  0  0  0  0  0  0  0  0  0  0  0
    1.3427    3.3473    0.0000 C   0  0  0  0  0  0  0  0  0  0  0  0
    0.6283    2.9348    0.0000 C   0  0  0  0  0  0  0  0  0  0  0  0
    0.6283    2.1098    0.0000 C   0  0  0  0  0  0  0  0  0  0  0  0
    0.6753    0.3873    0.0000 C   0  0  0  0  0  0  0  0  0  0  0  0
   -0.1093    0.6423    0.0000 O   0  0  0  0  0  0  0  0  0  0  0  0
    0.9302   -0.3973    0.0000 C   0  0  0  0  0  0  0  0  0  0  0  0
    0.4453   -1.0647    0.0000 C   0  0  0  0  0  0  0  0  0  0  0  0
    0.7809   -1.8184    0.0000 C   0  0  0  0  0  0  0  0  0  0  0  0
    0.2960   -2.4858    0.0000 C   0  0  0  0  0  0  0  0  0  0  0  0
    0.6315   -3.2395    0.0000 C   0  0  0  0  0  0  0  0  0  0  0  0
    1.4520   -3.3257    0.0000 C   0  0  0  0  0  0  0  0  0  0  0  0
    1.7876   -4.0794    0.0000 N   0  0  0  0  0  0  0  0  0  0  0  0
    1.3026   -4.7469    0.0000 C   0  0  0  0  0  0  0  0  0  0  0  0
    1.6382   -5.5005    0.0000 C   0  0  0  0  0  0  0  0  0  0  0  0
    2.6080   -4.1656    0.0000 C   0  0  0  0  0  0  0  0  0  0  0  0
    2.9436   -4.9193    0.0000 C   0  0  0  0  0  0  0  0  0  0  0  0
    1.9369   -2.6583    0.0000 C   0  0  0  0  0  0  0  0  0  0  0  0
    1.6014   -1.9046    0.0000 C   0  0  0  0  0  0  0  0  0  0  0  0
  1  2  1  0  0  0  0
  2  3  1  0  0  0  0
  3  4  1  0  0  0  0
  5  4  2  0  0  0  0
  6  5  1  0  0  0  0
  6  7  1  0  0  0  0
  8  7  1  0  0  0  0
  9  8  2  0  0  0  0
 10  9  1  0  0  0  0
 11 10  2  0  0  0  0
 12 11  1  0  0  0  0
  7 12  2  0  0  0  0
 13  6  1  0  0  0  0
 13 14  2  0  0  0  0
 15 13  1  0  0  0  0
  4 15  1  0  0  0  0
 15 16  2  0  0  0  0
 16 17  1  4  0  0  0
 18 17  1  0  0  0  0
 19 18  2  0  0  0  0
 20 19  1  0  0  0  0
 20 21  1  0  0  0  0
 21 22  1  0  0  0  0
 22 23  1  0  0  0  0
 21 24  1  0  0  0  0
 24 25  1  0  0  0  0
 26 20  2  0  0  0  0
 27 26  1  0  0  0  0
 17 27  2  0  0  0  0
M  END
> <RowID>
735

> <Original_SMILES>
CCOC1=NN(C(=O)C1=CC1C=CC(=CC=1)N(CC)CC)C1C=CC=CC=1

> <Canonical_QSARr>
CCOC1=NN(C(=O)C1=CC1C=CC(=CC=1)N(CC)CC)C1C=CC=CC=1

> <InChI_Code_QSARr>
InChI=1S/C22H25N3O2/c1-4-24(5-2)18-14-12-17(13-15-18)16-20-21(27-6-3)23-25(22(20)26)19-10-8-7-9-11-19/h7-16H,4-6H2,1-3H3

> <InChI Key_QSARr>
AMTJSDBKPMMKKQ-UHFFFAOYSA-N

> <Salt_Solvent>


> <Salt_Solvent_ID>
0

> <Number of connected components>
1

$$$$
Molecule_737
  Mrv2316 01072400032D          

  7  7  0  0  0  0            999 V2000
    0.2912    2.2316    0.0000 C   0  0  0  0  0  0  0  0  0  0  0  0
    0.1479    1.4191    0.0000 C   0  0  0  0  0  0  0  0  0  0  0  0
   -0.6274    1.1369    0.0000 O   0  0  0  0  0  0  0  0  0  0  0  0
    0.7799    0.8888    0.0000 C   0  0  0  0  0  0  0  0  0  0  0  0
    1.4119    1.4191    0.0000 Cl  0  0  0  0  0  0  0  0  0  0  0  0
    0.3674    0.1743    0.0000 C   0  0  0  0  0  0  0  0  0  0  0  0
    1.1924    0.1743    0.0000 C   0  0  0  0  0  0  0  0  0  0  0  0
  1  2  1  0  0  0  0
  2  3  2  0  0  0  0
  2  4  1  0  0  0  0
  4  5  1  0  0  0  0
  6  4  1  0  0  0  0
  7  6  1  0  0  0  0
  4  7  1  0  0  0  0
M  END
> <RowID>
737

> <Original_SMILES>
CC(=O)C1(Cl)CC1

> <Canonical_QSARr>
CC(=O)C1(Cl)CC1

> <InChI_Code_QSARr>
InChI=1S/C5H7ClO/c1-4(7)5(6)2-3-5/h2-3H2,1H3

> <InChI Key_QSARr>
KADOHHPNWMXGNG-UHFFFAOYSA-N

> <Salt_Solvent>


> <Salt_Solvent_ID>
0

> <Number of connected components>
1

$$$$
Molecule_738
  Mrv2316 01072400032D          

  2  1  0  0  0  0            999 V2000
    0.8250    0.0000    0.0000 C   0  0  0  0  0  0  0  0  0  0  0  0
    0.0000    0.0000    0.0000 N   0  0  0  0  0  0  0  0  0  0  0  0
  1  2  3  0  0  0  0
M  END
> <RowID>
738

> <Original_SMILES>
[Ag+].[C-]#N

> <Canonical_QSARr>
C#N

> <InChI_Code_QSARr>
InChI=1S/CHN/c1-2/h1H

> <InChI Key_QSARr>
LELOWRISYMNNSU-UHFFFAOYSA-N

> <Salt_Solvent>
[Ag+]

> <Salt_Solvent_ID>
470

> <Number of connected components>
2

$$$$
Molecule_739
  Mrv2316 01072400032D          

 19 20  0  0  0  0            999 V2000
    1.4289   -3.2132    0.0000 C   0  0  0  0  0  0  0  0  0  0  0  0
    1.4289   -2.3882    0.0000 C   0  0  0  0  0  0  0  0  0  0  0  0
    2.1434   -1.9757    0.0000 O   0  0  0  0  0  0  0  0  0  0  0  0
    0.7145   -1.9757    0.0000 N   0  0  0  0  0  0  0  0  0  0  0  0
    0.7145   -1.1507    0.0000 C   0  0  0  0  0  0  0  0  0  0  0  0
    1.4289   -0.7382    0.0000 C   0  0  0  0  0  0  0  0  0  0  0  0
    1.4289    0.0868    0.0000 C   0  0  0  0  0  0  0  0  0  0  0  0
    0.7145    0.4993    0.0000 C   0  0  0  0  0  0  0  0  0  0  0  0
    0.7145    1.3243    0.0000 F   0  0  0  0  0  0  0  0  0  0  0  0
   -0.0000    0.0868    0.0000 C   0  0  0  0  0  0  0  0  0  0  0  0
   -0.0000   -0.7382    0.0000 C   0  0  0  0  0  0  0  0  0  0  0  0
   -0.7145   -1.1507    0.0000 C   0  0  0  0  0  0  0  0  0  0  0  0
   -1.4289   -0.7382    0.0000 C   0  0  0  0  0  0  0  0  0  0  0  0
   -2.1434   -1.1507    0.0000 C   0  0  0  0  0  0  0  0  0  0  0  0
   -2.8579   -0.7382    0.0000 Cl  0  0  0  0  0  0  0  0  0  0  0  0
   -2.1434   -1.9757    0.0000 C   0  0  0  0  0  0  0  0  0  0  0  0
   -2.8579   -2.3882    0.0000 Cl  0  0  0  0  0  0  0  0  0  0  0  0
   -1.4289   -2.3882    0.0000 C   0  0  0  0  0  0  0  0  0  0  0  0
   -0.7145   -1.9757    0.0000 C   0  0  0  0  0  0  0  0  0  0  0  0
  1  2  1  0  0  0  0
  2  3  2  0  0  0  0
  2  4  1  0  0  0  0
  4  5  1  0  0  0  0
  6  5  2  0  0  0  0
  7  6  1  0  0  0  0
  8  7  2  0  0  0  0
  8  9  1  0  0  0  0
 10  8  1  0  0  0  0
 11 10  2  0  0  0  0
  5 11  1  0  0  0  0
 11 12  1  0  0  0  0
 13 12  1  0  0  0  0
 14 13  2  0  0  0  0
 14 15  1  0  0  0  0
 16 14  1  0  0  0  0
 16 17  1  0  0  0  0
 18 16  2  0  0  0  0
 19 18  1  0  0  0  0
 12 19  2  0  0  0  0
M  END
> <RowID>
739

> <Original_SMILES>
CC(=O)NC1=CC=C(F)C=C1C1C=C(Cl)C(Cl)=CC=1

> <Canonical_QSARr>
CC(=O)NC1=CC=C(F)C=C1C1C=C(Cl)C(Cl)=CC=1

> <InChI_Code_QSARr>
InChI=1S/C14H10Cl2FNO/c1-8(19)18-14-5-3-10(17)7-11(14)9-2-4-12(15)13(16)6-9/h2-7H,1H3,(H,18,19)

> <InChI Key_QSARr>
AXJVTIXMCNXNFH-UHFFFAOYSA-N

> <Salt_Solvent>


> <Salt_Solvent_ID>
0

> <Number of connected components>
1

$$$$
Molecule_740
  Mrv2316 01072400032D          

  4  3  0  0  0  0            999 V2000
    0.8250   -0.0000    0.0000 C   0  0  0  0  0  0  0  0  0  0  0  0
    1.2375    0.7145    0.0000 O   0  0  0  0  0  0  0  0  0  0  0  0
    1.2375   -0.7145    0.0000 O   0  0  0  0  0  0  0  0  0  0  0  0
    0.0000   -0.0000    0.0000 O   0  0  0  0  0  0  0  0  0  0  0  0
  1  2  1  0  0  0  0
  1  3  2  0  0  0  0
  1  4  1  0  0  0  0
M  END
> <RowID>
740

> <Original_SMILES>
[Pr+3].[Pr+3].[O-]C([O-])=O.[O-]C([O-])=O.[O-]C([O-])=O

> <Canonical_QSARr>
OC(O)=O

> <InChI_Code_QSARr>
InChI=1S/CH2O3/c2-1(3)4/h(H2,2,3,4)

> <InChI Key_QSARr>
BVKZGUZCCUSVTD-UHFFFAOYSA-N

> <Salt_Solvent>
[Pr+3]

> <Salt_Solvent_ID>
590

> <Number of connected components>
5

$$$$
Molecule_741
  Mrv2316 01072400032D          

 17 18  0  0  0  0            999 V2000
    0.0841   -6.9397    0.0000 C   0  0  0  0  0  0  0  0  0  0  0  0
    0.0841   -6.1147    0.0000 C   0  0  0  0  0  0  0  0  0  0  0  0
    0.7985   -5.7022    0.0000 C   0  0  0  0  0  0  0  0  0  0  0  0
    0.7985   -4.8772    0.0000 C   0  0  0  0  0  0  0  0  0  0  0  0
    1.5130   -4.4647    0.0000 C   0  0  0  0  0  0  0  0  0  0  0  0
    1.5130   -3.6397    0.0000 C   0  0  0  0  0  0  0  0  0  0  0  0
    0.7985   -3.2272    0.0000 C   0  0  0  0  0  0  0  0  0  0  0  0
    0.7985   -2.4022    0.0000 C   0  0  0  0  0  0  0  0  0  0  0  0
    1.5130   -1.9897    0.0000 C   0  0  0  0  0  0  0  0  0  0  0  0
    1.5130   -1.1647    0.0000 C   0  0  0  0  0  0  0  0  0  0  0  0
    0.7985   -0.7522    0.0000 C   0  0  0  0  0  0  0  0  0  0  0  0
    0.7985    0.0728    0.0000 C   0  0  0  0  0  0  0  0  0  0  0  0
    0.0841    0.4853    0.0000 C   0  0  0  0  0  0  0  0  0  0  0  0
    0.0841   -1.1647    0.0000 C   0  0  0  0  0  0  0  0  0  0  0  0
    0.0841   -1.9897    0.0000 C   0  0  0  0  0  0  0  0  0  0  0  0
    0.0841   -3.6397    0.0000 C   0  0  0  0  0  0  0  0  0  0  0  0
    0.0841   -4.4647    0.0000 C   0  0  0  0  0  0  0  0  0  0  0  0
  1  2  1  0  0  0  0
  2  3  1  0  0  0  0
  3  4  1  0  0  0  0
  5  4  1  0  0  0  0
  6  5  1  0  0  0  0
  7  6  1  0  0  0  0
  7  8  1  0  0  0  0
  9  8  1  0  0  0  0
 10  9  1  0  0  0  0
 11 10  1  0  0  0  0
 11 12  1  0  0  0  0
 12 13  2  0  0  0  0
 14 11  1  0  0  0  0
 15 14  1  0  0  0  0
  8 15  1  0  0  0  0
 16  7  1  0  0  0  0
 17 16  1  0  0  0  0
  4 17  1  0  0  0  0
M  END
> <RowID>
741

> <Original_SMILES>
CCCC1CCC(CC1)C1CCC(CC1)C=C

> <Canonical_QSARr>
CCCC1CCC(CC1)C1CCC(CC1)C=C

> <InChI_Code_QSARr>
InChI=1S/C17H30/c1-3-5-15-8-12-17(13-9-15)16-10-6-14(4-2)7-11-16/h4,14-17H,2-3,5-13H2,1H3

> <InChI Key_QSARr>
KHDBEDDPFRHGCN-UHFFFAOYSA-N

> <Salt_Solvent>


> <Salt_Solvent_ID>
0

> <Number of connected components>
1

$$$$
Molecule_744
  Mrv2316 01072400032D          

 33 34  0  0  0  0            999 V2000
   -0.0011   -1.9520    0.0000 C   0  0  0  0  0  0  0  0  0  0  0  0
    0.4114   -1.2375    0.0000 C   0  0  0  0  0  0  0  0  0  0  0  0
    0.8239   -0.5230    0.0000 C   0  0  0  0  0  0  0  0  0  0  0  0
   -0.3031   -0.8250    0.0000 C   0  0  0  0  0  0  0  0  0  0  0  0
   -0.3031    0.0000    0.0000 C   0  0  0  0  0  0  0  0  0  0  0  0
   -1.0176    0.4125    0.0000 C   0  0  0  0  0  0  0  0  0  0  0  0
   -1.0176    1.2375    0.0000 Br  0  0  0  0  0  0  0  0  0  0  0  0
   -1.7321    0.0000    0.0000 C   0  0  0  0  0  0  0  0  0  0  0  0
   -2.4465    0.4125    0.0000 O   0  0  0  0  0  0  0  0  0  0  0  0
   -3.1610   -0.0000    0.0000 C   0  0  0  0  0  0  0  0  0  0  0  0
   -3.8755    0.4125    0.0000 C   0  0  0  0  0  0  0  0  0  0  0  0
   -4.2880   -0.3020    0.0000 C   0  0  0  0  0  0  0  0  0  0  0  0
   -3.4630    1.1270    0.0000 Br  0  0  0  0  0  0  0  0  0  0  0  0
   -4.5899    0.8250    0.0000 C   0  0  0  0  0  0  0  0  0  0  0  0
   -5.3044    0.4125    0.0000 Br  0  0  0  0  0  0  0  0  0  0  0  0
   -1.7321   -0.8250    0.0000 C   0  0  0  0  0  0  0  0  0  0  0  0
   -2.4465   -1.2375    0.0000 Br  0  0  0  0  0  0  0  0  0  0  0  0
   -1.0176   -1.2375    0.0000 C   0  0  0  0  0  0  0  0  0  0  0  0
    1.1258   -1.6500    0.0000 C   0  0  0  0  0  0  0  0  0  0  0  0
    1.1258   -2.4750    0.0000 C   0  0  0  0  0  0  0  0  0  0  0  0
    1.8403   -2.8875    0.0000 C   0  0  0  0  0  0  0  0  0  0  0  0
    1.8403   -3.7125    0.0000 Br  0  0  0  0  0  0  0  0  0  0  0  0
    2.5548   -2.4750    0.0000 C   0  0  0  0  0  0  0  0  0  0  0  0
    3.2692   -2.8875    0.0000 O   0  0  0  0  0  0  0  0  0  0  0  0
    3.9837   -2.4750    0.0000 C   0  0  0  0  0  0  0  0  0  0  0  0
    4.6982   -2.8875    0.0000 C   0  0  0  0  0  0  0  0  0  0  0  0
    4.2857   -3.6020    0.0000 C   0  0  0  0  0  0  0  0  0  0  0  0
    5.1107   -2.1730    0.0000 Br  0  0  0  0  0  0  0  0  0  0  0  0
    5.4127   -3.3000    0.0000 C   0  0  0  0  0  0  0  0  0  0  0  0
    6.1271   -2.8875    0.0000 Br  0  0  0  0  0  0  0  0  0  0  0  0
    2.5548   -1.6500    0.0000 C   0  0  0  0  0  0  0  0  0  0  0  0
    3.2692   -1.2375    0.0000 Br  0  0  0  0  0  0  0  0  0  0  0  0
    1.8403   -1.2375    0.0000 C   0  0  0  0  0  0  0  0  0  0  0  0
  1  2  1  0  0  0  0
  2  3  1  0  0  0  0
  2  4  1  0  0  0  0
  5  4  2  0  0  0  0
  6  5  1  0  0  0  0
  6  7  1  0  0  0  0
  8  6  2  0  0  0  0
  8  9  1  0  0  0  0
  9 10  1  0  0  0  0
 10 11  1  0  0  0  0
 11 12  1  0  0  0  0
 11 13  1  0  0  0  0
 11 14  1  0  0  0  0
 14 15  1  0  0  0  0
 16  8  1  0  0  0  0
 16 17  1  0  0  0  0
 18 16  2  0  0  0  0
  4 18  1  0  0  0  0
  2 19  1  0  0  0  0
 20 19  2  0  0  0  0
 21 20  1  0  0  0  0
 21 22  1  0  0  0  0
 23 21  2  0  0  0  0
 23 24  1  0  0  0  0
 24 25  1  0  0  0  0
 25 26  1  0  0  0  0
 26 27  1  0  0  0  0
 26 28  1  0  0  0  0
 26 29  1  0  0  0  0
 29 30  1  0  0  0  0
 31 23  1  0  0  0  0
 31 32  1  0  0  0  0
 33 31  2  0  0  0  0
 19 33  1  0  0  0  0
M  END
> <RowID>
744

> <Original_SMILES>
CC(C)(C1=CC(Br)=C(OCC(C)(Br)CBr)C(Br)=C1)C1=CC(Br)=C(OCC(C)(Br)CBr)C(Br)=C1

> <Canonical_QSARr>
CC(C)(C1=CC(Br)=C(OCC(C)(Br)CBr)C(Br)=C1)C1=CC(Br)=C(OCC(C)(Br)CBr)C(Br)=C1

> <InChI_Code_QSARr>
InChI=1S/C23H24Br8O2/c1-21(2,13-5-15(26)19(16(27)6-13)32-11-22(3,30)9-24)14-7-17(28)20(18(29)8-14)33-12-23(4,31)10-25/h5-8H,9-12H2,1-4H3

> <InChI Key_QSARr>
IYOVSGHZOIZSDC-UHFFFAOYSA-N

> <Salt_Solvent>


> <Salt_Solvent_ID>
0

> <Number of connected components>
1

$$$$
Molecule_745
  Mrv2316 01072400032D          

 19 18  0  0  0  0            999 V2000
   -0.6039   -0.8250    0.0000 C   0  0  0  0  0  0  0  0  0  0  0  0
   -0.6039    0.0000    0.0000 C   0  0  0  0  0  0  0  0  0  0  0  0
    0.1105    0.4125    0.0000 O   0  0  0  0  0  0  0  0  0  0  0  0
    0.8250    0.0000    0.0000 C   0  0  0  0  0  0  0  0  0  0  0  0
    0.8250   -0.8250    0.0000 O   0  0  0  0  0  0  0  0  0  0  0  0
    1.5395    0.4125    0.0000 C   0  0  0  0  0  0  0  0  0  0  0  0
    2.2540    0.8250    0.0000 O   0  0  0  0  0  0  0  0  0  0  0  0
    1.9520   -0.3020    0.0000 C   0  0  0  0  0  0  0  0  0  0  0  0
    2.7770   -0.3020    0.0000 C   0  0  0  0  0  0  0  0  0  0  0  0
    3.1895   -1.0164    0.0000 O   0  0  0  0  0  0  0  0  0  0  0  0
    3.1895    0.4125    0.0000 O   0  0  0  0  0  0  0  0  0  0  0  0
    4.0145    0.4125    0.0000 C   0  0  0  0  0  0  0  0  0  0  0  0
    4.4270    1.1270    0.0000 C   0  0  0  0  0  0  0  0  0  0  0  0
    1.1270    1.1270    0.0000 C   0  0  0  0  0  0  0  0  0  0  0  0
    1.5395    1.8414    0.0000 C   0  0  0  0  0  0  0  0  0  0  0  0
    1.1270    2.5559    0.0000 O   0  0  0  0  0  0  0  0  0  0  0  0
    2.3645    1.8414    0.0000 O   0  0  0  0  0  0  0  0  0  0  0  0
    2.7770    1.1270    0.0000 C   0  0  0  0  0  0  0  0  0  0  0  0
    3.6020    1.1270    0.0000 C   0  0  0  0  0  0  0  0  0  0  0  0
  1  2  1  0  0  0  0
  2  3  1  0  0  0  0
  3  4  1  0  0  0  0
  4  5  2  0  0  0  0
  4  6  1  0  0  0  0
  6  7  1  0  0  0  0
  6  8  1  0  0  0  0
  8  9  1  0  0  0  0
  9 10  2  0  0  0  0
  9 11  1  0  0  0  0
 11 12  1  0  0  0  0
 12 13  1  0  0  0  0
  6 14  1  0  0  0  0
 14 15  1  0  0  0  0
 15 16  2  0  0  0  0
 15 17  1  0  0  0  0
 17 18  1  0  0  0  0
 18 19  1  0  0  0  0
M  END
> <RowID>
745

> <Original_SMILES>
CCOC(=O)C(O)(CC(=O)OCC)CC(=O)OCC

> <Canonical_QSARr>
CCOC(=O)C(O)(CC(=O)OCC)CC(=O)OCC

> <InChI_Code_QSARr>
InChI=1S/C12H20O7/c1-4-17-9(13)7-12(16,11(15)19-6-3)8-10(14)18-5-2/h16H,4-8H2,1-3H3

> <InChI Key_QSARr>
DOOTYTYQINUNNV-UHFFFAOYSA-N

> <Salt_Solvent>


> <Salt_Solvent_ID>
0

> <Number of connected components>
1

$$$$
Molecule_747
  Mrv2316 01072400032D          

 22 24  0  0  0  0            999 V2000
    0.9743   -4.1250    0.0000 O   0  0  0  0  0  0  0  0  0  0  0  0
    0.2598   -3.7125    0.0000 C   0  0  0  0  0  0  0  0  0  0  0  0
    0.2598   -2.8875    0.0000 O   0  0  0  0  0  0  0  0  0  0  0  0
   -0.4547   -4.1250    0.0000 C   0  0  0  0  0  0  0  0  0  0  0  0
   -1.1691   -3.7125    0.0000 C   0  0  0  0  0  0  0  0  0  0  0  0
   -1.1691   -2.8875    0.0000 N   0  0  0  0  0  0  0  0  0  0  0  0
   -0.4547   -2.4750    0.0000 N   0  0  0  0  0  0  0  0  0  0  0  0
   -0.4547   -1.6500    0.0000 C   0  0  0  0  0  0  0  0  0  0  0  0
    0.2598   -1.2375    0.0000 C   0  0  0  0  0  0  0  0  0  0  0  0
    0.2598   -0.4125    0.0000 C   0  0  0  0  0  0  0  0  0  0  0  0
    0.9743    0.0000    0.0000 C   0  0  0  0  0  0  0  0  0  0  0  0
    1.6887   -0.4125    0.0000 C   0  0  0  0  0  0  0  0  0  0  0  0
    1.6887   -1.2375    0.0000 C   0  0  0  0  0  0  0  0  0  0  0  0
    0.9743   -1.6500    0.0000 C   0  0  0  0  0  0  0  0  0  0  0  0
   -0.4547   -0.0000    0.0000 C   0  0  0  0  0  0  0  0  0  0  0  0
   -1.1691   -0.4125    0.0000 C   0  0  0  0  0  0  0  0  0  0  0  0
   -1.1691   -1.2375    0.0000 C   0  0  0  0  0  0  0  0  0  0  0  0
   -1.8836   -1.6500    0.0000 O   0  0  0  0  0  0  0  0  0  0  0  0
   -1.8836   -4.1250    0.0000 C   0  0  0  0  0  0  0  0  0  0  0  0
   -1.8836   -4.9500    0.0000 C   0  0  0  0  0  0  0  0  0  0  0  0
   -1.1691   -5.3625    0.0000 C   0  0  0  0  0  0  0  0  0  0  0  0
   -0.4547   -4.9500    0.0000 C   0  0  0  0  0  0  0  0  0  0  0  0
  1  2  1  0  0  0  0
  2  3  2  0  0  0  0
  2  4  1  0  0  0  0
  5  4  2  0  0  0  0
  6  5  1  4  0  0  0
  6  7  2  0  0  0  0
  7  8  1  0  0  0  0
  9  8  1  0  0  0  0
  9 10  1  0  0  0  0
 10 11  2  0  0  0  0
 11 12  1  0  0  0  0
 12 13  2  0  0  0  0
 13 14  1  0  0  0  0
 14  9  2  0  0  0  0
 15 10  1  0  0  0  0
 16 15  2  0  0  0  0
 17 16  1  0  0  0  0
  8 17  2  0  0  0  0
 17 18  1  0  0  0  0
 19  5  1  0  0  0  0
 20 19  2  0  0  0  0
 21 20  1  0  0  0  0
 22 21  2  0  0  0  0
  4 22  1  0  0  0  0
M  END
> <RowID>
747

> <Original_SMILES>
[Ba+2].[O-]C(=O)C1=CC=CC=C1N=NC1=C2C=CC=CC2=CC=C1O.[O-]C(=O)C1=CC=CC=C1N=NC1=C2C=CC=CC2=CC=C1O

> <Canonical_QSARr>
OC1C=CC2=CC=CC=C2C=1N=NC1C=CC=CC=1C(O)=O

> <InChI_Code_QSARr>
InChI=1S/C17H12N2O3/c20-15-10-9-11-5-1-2-6-12(11)16(15)19-18-14-8-4-3-7-13(14)17(21)22/h1-10,20H,(H,21,22)

> <InChI Key_QSARr>
OMRMWDQPXBZWGS-UHFFFAOYSA-N

> <Salt_Solvent>
[Ba+2]

> <Salt_Solvent_ID>
560

> <Number of connected components>
3

$$$$
Molecule_749
  Mrv2316 01072400032D          

 48 48  0  0  0  0            999 V2000
  -15.1379    5.1305    0.0000 C   0  0  0  0  0  0  0  0  0  0  0  0
  -14.4234    4.7180    0.0000 C   0  0  0  0  0  0  0  0  0  0  0  0
  -13.7089    5.1305    0.0000 C   0  0  0  0  0  0  0  0  0  0  0  0
  -12.9945    4.7180    0.0000 C   0  0  0  0  0  0  0  0  0  0  0  0
  -12.2800    5.1305    0.0000 C   0  0  0  0  0  0  0  0  0  0  0  0
  -11.5655    4.7180    0.0000 C   0  0  0  0  0  0  0  0  0  0  0  0
  -10.8510    5.1304    0.0000 C   0  0  0  0  0  0  0  0  0  0  0  0
  -10.1366    4.7179    0.0000 C   0  0  0  0  0  0  0  0  0  0  0  0
   -9.4221    5.1304    0.0000 C   0  0  0  0  0  0  0  0  0  0  0  0
   -8.7076    4.7179    0.0000 C   0  0  0  0  0  0  0  0  0  0  0  0
   -7.9932    5.1304    0.0000 C   0  0  0  0  0  0  0  0  0  0  0  0
   -7.2787    4.7179    0.0000 C   0  0  0  0  0  0  0  0  0  0  0  0
   -6.5642    5.1304    0.0000 C   0  0  0  0  0  0  0  0  0  0  0  0
   -5.8498    4.7179    0.0000 C   0  0  0  0  0  0  0  0  0  0  0  0
   -5.1353    5.1304    0.0000 C   0  0  0  0  0  0  0  0  0  0  0  0
   -4.4208    4.7179    0.0000 C   0  0  0  0  0  0  0  0  0  0  0  0
   -4.4208    3.8929    0.0000 O   0  0  0  0  0  0  0  0  0  0  0  0
   -3.7063    5.1304    0.0000 O   0  0  0  0  0  0  0  0  0  0  0  0
   -2.9919    4.7179    0.0000 C   0  0  0  0  0  0  0  0  0  0  0  0
   -2.2774    5.1304    0.0000 C   0  0  0  0  0  0  0  0  0  0  0  0
   -1.5629    4.7179    0.0000 O   0  0  0  0  0  0  0  0  0  0  0  0
   -0.8485    5.1304    0.0000 C   0  0  0  0  0  0  0  0  0  0  0  0
   -0.1340    4.7179    0.0000 C   0  0  0  0  0  0  0  0  0  0  0  0
    0.5805    5.1304    0.0000 C   0  0  0  0  0  0  0  0  0  0  0  0
    1.2950    4.7179    0.0000 O   0  0  0  0  0  0  0  0  0  0  0  0
    2.0094    5.1305    0.0000 C   0  0  0  0  0  0  0  0  0  0  0  0
    2.7239    4.7180    0.0000 C   0  0  0  0  0  0  0  0  0  0  0  0
    3.4384    5.1305    0.0000 O   0  0  0  0  0  0  0  0  0  0  0  0
    4.1528    4.7180    0.0000 C   0  0  0  0  0  0  0  0  0  0  0  0
    4.1528    3.8930    0.0000 O   0  0  0  0  0  0  0  0  0  0  0  0
    4.8673    5.1305    0.0000 C   0  0  0  0  0  0  0  0  0  0  0  0
    5.5818    4.7180    0.0000 C   0  0  0  0  0  0  0  0  0  0  0  0
    6.2963    5.1305    0.0000 C   0  0  0  0  0  0  0  0  0  0  0  0
    7.0107    4.7180    0.0000 C   0  0  0  0  0  0  0  0  0  0  0  0
    7.7252    5.1305    0.0000 C   0  0  0  0  0  0  0  0  0  0  0  0
    8.4397    4.7180    0.0000 C   0  0  0  0  0  0  0  0  0  0  0  0
    9.1541    5.1305    0.0000 C   0  0  0  0  0  0  0  0  0  0  0  0
    9.8686    4.7180    0.0000 C   0  0  0  0  0  0  0  0  0  0  0  0
   10.5831    5.1305    0.0000 C   0  0  0  0  0  0  0  0  0  0  0  0
   11.2976    4.7180    0.0000 C   0  0  0  0  0  0  0  0  0  0  0  0
   12.0120    5.1305    0.0000 C   0  0  0  0  0  0  0  0  0  0  0  0
   12.7265    4.7180    0.0000 C   0  0  0  0  0  0  0  0  0  0  0  0
   13.4410    5.1304    0.0000 C   0  0  0  0  0  0  0  0  0  0  0  0
   14.1554    4.7179    0.0000 C   0  0  0  0  0  0  0  0  0  0  0  0
   14.8699    5.1304    0.0000 C   0  0  0  0  0  0  0  0  0  0  0  0
    0.5805    5.9554    0.0000 C   0  0  0  0  0  0  0  0  0  0  0  0
   -0.1340    6.3679    0.0000 C   0  0  0  0  0  0  0  0  0  0  0  0
   -0.8485    5.9554    0.0000 C   0  0  0  0  0  0  0  0  0  0  0  0
  1  2  1  0  0  0  0
  2  3  1  0  0  0  0
  3  4  1  0  0  0  0
  4  5  1  0  0  0  0
  5  6  1  0  0  0  0
  6  7  1  0  0  0  0
  7  8  1  0  0  0  0
  8  9  1  0  0  0  0
  9 10  1  0  0  0  0
 10 11  1  0  0  0  0
 11 12  1  0  0  0  0
 12 13  1  0  0  0  0
 13 14  1  0  0  0  0
 14 15  1  0  0  0  0
 15 16  1  0  0  0  0
 16 17  2  0  0  0  0
 16 18  1  0  0  0  0
 18 19  1  0  0  0  0
 19 20  1  0  0  0  0
 20 21  1  0  0  0  0
 21 22  1  0  0  0  0
 23 22  1  0  0  0  0
 24 23  2  0  0  0  0
 24 25  1  0  0  0  0
 25 26  1  0  0  0  0
 26 27  1  0  0  0  0
 27 28  1  0  0  0  0
 28 29  1  0  0  0  0
 29 30  2  0  0  0  0
 29 31  1  0  0  0  0
 31 32  1  0  0  0  0
 32 33  1  0  0  0  0
 33 34  1  0  0  0  0
 34 35  1  0  0  0  0
 35 36  1  0  0  0  0
 36 37  1  0  0  0  0
 37 38  1  0  0  0  0
 38 39  1  0  0  0  0
 39 40  1  0  0  0  0
 40 41  1  0  0  0  0
 41 42  1  0  0  0  0
 42 43  1  0  0  0  0
 43 44  1  0  0  0  0
 44 45  1  0  0  0  0
 46 24  1  0  0  0  0
 47 46  2  0  0  0  0
 48 47  1  0  0  0  0
 22 48  2  0  0  0  0
M  END
> <RowID>
749

> <Original_SMILES>
CCCCCCCCCCCCCCCC(=O)OCCOC1C=C(C=CC=1)OCCOC(=O)CCCCCCCCCCCCCCC

> <Canonical_QSARr>
CCCCCCCCCCCCCCCC(=O)OCCOC1C=C(C=CC=1)OCCOC(=O)CCCCCCCCCCCCCCC

> <InChI_Code_QSARr>
InChI=1S/C42H74O6/c1-3-5-7-9-11-13-15-17-19-21-23-25-27-32-41(43)47-36-34-45-39-30-29-31-40(38-39)46-35-37-48-42(44)33-28-26-24-22-20-18-16-14-12-10-8-6-4-2/h29-31,38H,3-28,32-37H2,1-2H3

> <InChI Key_QSARr>
IQSJVXCHIFJPKJ-UHFFFAOYSA-N

> <Salt_Solvent>


> <Salt_Solvent_ID>
0

> <Number of connected components>
1

$$$$
Molecule_750
  Mrv2316 01072400032D          

 25 25  0  0  0  0            999 V2000
    3.5723   -9.5535    0.0000 C   0  0  0  0  0  0  0  0  0  0  0  0
    4.2868   -9.1410    0.0000 C   0  0  0  0  0  0  0  0  0  0  0  0
    5.0013   -9.5535    0.0000 C   0  0  0  0  0  0  0  0  0  0  0  0
    5.7157   -9.1410    0.0000 C   0  0  0  0  0  0  0  0  0  0  0  0
    6.4302   -9.5535    0.0000 C   0  0  0  0  0  0  0  0  0  0  0  0
    7.1447   -9.1410    0.0000 C   0  0  0  0  0  0  0  0  0  0  0  0
    7.8592   -9.5535    0.0000 C   0  0  0  0  0  0  0  0  0  0  0  0
    8.5736   -9.1410    0.0000 C   0  0  0  0  0  0  0  0  0  0  0  0
    9.2881   -9.5535    0.0000 C   0  0  0  0  0  0  0  0  0  0  0  0
   10.0026   -9.1410    0.0000 C   0  0  0  0  0  0  0  0  0  0  0  0
   10.7170   -9.5535    0.0000 C   0  0  0  0  0  0  0  0  0  0  0  0
   11.4315   -9.1410    0.0000 C   0  0  0  0  0  0  0  0  0  0  0  0
   12.1460   -9.5535    0.0000 C   0  0  0  0  0  0  0  0  0  0  0  0
   12.8605   -9.1410    0.0000 C   0  0  0  0  0  0  0  0  0  0  0  0
   13.5749   -9.5535    0.0000 C   0  0  0  0  0  0  0  0  0  0  0  0
   13.5749  -10.3785    0.0000 C   0  0  0  0  0  0  0  0  0  0  0  0
   14.2894   -9.1410    0.0000 C   0  0  0  0  0  0  0  0  0  0  0  0
   15.0039   -9.5535    0.0000 C   0  0  0  0  0  0  0  0  0  0  0  0
   15.7183   -9.1410    0.0000 C   0  0  0  0  0  0  0  0  0  0  0  0
   16.4328   -9.5535    0.0000 C   0  0  0  0  0  0  0  0  0  0  0  0
   15.7183   -8.3160    0.0000 C   0  0  0  0  0  0  0  0  0  0  0  0
   15.0039   -7.9035    0.0000 C   0  0  0  0  0  0  0  0  0  0  0  0
   15.0039   -7.0785    0.0000 C   0  0  0  0  0  0  0  0  0  0  0  0
   14.2894   -8.3160    0.0000 C   0  0  0  0  0  0  0  0  0  0  0  0
   13.5749   -7.9035    0.0000 O   0  0  0  0  0  0  0  0  0  0  0  0
  1  2  1  0  0  0  0
  2  3  1  0  0  0  0
  3  4  1  0  0  0  0
  4  5  1  0  0  0  0
  5  6  1  0  0  0  0
  6  7  1  0  0  0  0
  7  8  1  0  0  0  0
  8  9  1  0  0  0  0
  9 10  1  0  0  0  0
 10 11  1  0  0  0  0
 11 12  1  0  0  0  0
 12 13  1  0  0  0  0
 13 14  1  0  0  0  0
 14 15  1  0  0  0  0
 15 16  1  0  0  0  0
 15 17  1  0  0  0  0
 18 17  2  0  0  0  0
 19 18  1  0  0  0  0
 19 20  1  0  0  0  0
 21 19  2  0  0  0  0
 22 21  1  0  0  0  0
 22 23  1  0  0  0  0
 24 22  2  0  0  0  0
 17 24  1  0  0  0  0
 24 25  1  0  0  0  0
M  END
> <RowID>
750

> <Original_SMILES>
CCCCCCCCCCCCCCC(C)C1=CC(C)=CC(C)=C1O

> <Canonical_QSARr>
CCCCCCCCCCCCCCC(C)C1=CC(C)=CC(C)=C1O

> <InChI_Code_QSARr>
InChI=1S/C24H42O/c1-5-6-7-8-9-10-11-12-13-14-15-16-17-21(3)23-19-20(2)18-22(4)24(23)25/h18-19,21,25H,5-17H2,1-4H3

> <InChI Key_QSARr>
TVWGHFVGFWIHFN-UHFFFAOYSA-N

> <Salt_Solvent>


> <Salt_Solvent_ID>
0

> <Number of connected components>
1

$$$$
Molecule_751
  Mrv2316 01072400032D          

 14 14  0  0  0  0            999 V2000
    2.4496   -1.5911    0.0000 C   0  0  0  0  0  0  0  0  0  0  0  0
    2.4496   -0.7661    0.0000 O   0  0  0  0  0  0  0  0  0  0  0  0
    1.7351   -0.3536    0.0000 C   0  0  0  0  0  0  0  0  0  0  0  0
    1.7351    0.4714    0.0000 C   0  0  0  0  0  0  0  0  0  0  0  0
    1.0207    0.8839    0.0000 C   0  0  0  0  0  0  0  0  0  0  0  0
    1.0207    1.7089    0.0000 N   0  3  0  0  0  0  0  0  0  0  0  0
    0.3062    2.1214    0.0000 O   0  5  0  0  0  0  0  0  0  0  0  0
    1.7351    2.1214    0.0000 O   0  0  0  0  0  0  0  0  0  0  0  0
    0.3062    0.4714    0.0000 C   0  0  0  0  0  0  0  0  0  0  0  0
   -0.4083    0.8839    0.0000 O   0  0  0  0  0  0  0  0  0  0  0  0
   -1.1227    0.4714    0.0000 C   0  0  0  0  0  0  0  0  0  0  0  0
    0.3062   -0.3536    0.0000 C   0  0  0  0  0  0  0  0  0  0  0  0
    1.0207   -0.7661    0.0000 C   0  0  0  0  0  0  0  0  0  0  0  0
    1.0207   -1.5911    0.0000 Cl  0  0  0  0  0  0  0  0  0  0  0  0
  1  2  1  0  0  0  0
  2  3  1  0  0  0  0
  4  3  2  0  0  0  0
  5  4  1  0  0  0  0
  5  6  1  0  0  0  0
  6  7  1  0  0  0  0
  6  8  2  0  0  0  0
  9  5  2  0  0  0  0
  9 10  1  0  0  0  0
 10 11  1  0  0  0  0
 12  9  1  0  0  0  0
 13 12  2  0  0  0  0
  3 13  1  0  0  0  0
 13 14  1  0  0  0  0
M  CHG  2   6   1   7  -1
M  END
> <RowID>
751

> <Original_SMILES>
COC1=CC(=C(C=C1Cl)OC)[N+]([O-])=O

> <Canonical_QSARr>
COC1=CC(=C(C=C1Cl)OC)[N+]([O-])=O

> <InChI_Code_QSARr>
InChI=1S/C8H8ClNO4/c1-13-7-4-6(10(11)12)8(14-2)3-5(7)9/h3-4H,1-2H3

> <InChI Key_QSARr>
ORLPGMKKCAEWOW-UHFFFAOYSA-N

> <Salt_Solvent>


> <Salt_Solvent_ID>
0

> <Number of connected components>
1

$$$$
Molecule_752
  Mrv2316 01072400032D          

 24 25  0  0  0  0            999 V2000
    2.6938    2.1907    0.0000 C   0  0  0  0  0  0  0  0  0  0  0  0
    1.9793    1.7782    0.0000 C   0  0  0  0  0  0  0  0  0  0  0  0
    1.9793    0.9532    0.0000 C   0  0  0  0  0  0  0  0  0  0  0  0
    1.2648    0.5407    0.0000 C   0  0  0  0  0  0  0  0  0  0  0  0
    0.5503    0.9532    0.0000 C   0  0  0  0  0  0  0  0  0  0  0  0
   -0.1641    0.5407    0.0000 C   0  0  0  0  0  0  0  0  0  0  0  0
   -0.9488    0.7957    0.0000 O   0  0  0  0  0  0  0  0  0  0  0  0
   -1.4337    0.1282    0.0000 C   0  0  0  0  0  0  0  0  0  0  0  0
   -0.9488   -0.5392    0.0000 O   0  0  0  0  0  0  0  0  0  0  0  0
   -0.1641   -0.2843    0.0000 C   0  0  0  0  0  0  0  0  0  0  0  0
    0.5503   -0.6968    0.0000 C   0  0  0  0  0  0  0  0  0  0  0  0
    1.2648   -0.2843    0.0000 C   0  0  0  0  0  0  0  0  0  0  0  0
    1.9793   -0.6968    0.0000 C   0  0  0  0  0  0  0  0  0  0  0  0
    2.6938   -0.2843    0.0000 O   0  0  0  0  0  0  0  0  0  0  0  0
    3.4082   -0.6968    0.0000 C   0  0  0  0  0  0  0  0  0  0  0  0
    4.1227   -0.2843    0.0000 C   0  0  0  0  0  0  0  0  0  0  0  0
    4.8372   -0.6968    0.0000 O   0  0  0  0  0  0  0  0  0  0  0  0
    5.5516   -0.2843    0.0000 C   0  0  0  0  0  0  0  0  0  0  0  0
    6.2661   -0.6968    0.0000 C   0  0  0  0  0  0  0  0  0  0  0  0
    6.9806   -0.2843    0.0000 O   0  0  0  0  0  0  0  0  0  0  0  0
    7.6950   -0.6968    0.0000 C   0  0  0  0  0  0  0  0  0  0  0  0
    8.4095   -0.2843    0.0000 C   0  0  0  0  0  0  0  0  0  0  0  0
    9.1240   -0.6968    0.0000 C   0  0  0  0  0  0  0  0  0  0  0  0
    9.8385   -0.2843    0.0000 C   0  0  0  0  0  0  0  0  0  0  0  0
  1  2  1  0  0  0  0
  2  3  1  0  0  0  0
  3  4  1  0  0  0  0
  5  4  2  0  0  0  0
  6  5  1  0  0  0  0
  6  7  1  0  0  0  0
  7  8  1  0  0  0  0
  8  9  1  0  0  0  0
  9 10  1  0  0  0  0
 10  6  2  0  0  0  0
 11 10  1  0  0  0  0
 12 11  2  0  0  0  0
  4 12  1  0  0  0  0
 12 13  1  0  0  0  0
 13 14  1  0  0  0  0
 14 15  1  0  0  0  0
 15 16  1  0  0  0  0
 16 17  1  0  0  0  0
 17 18  1  0  0  0  0
 18 19  1  0  0  0  0
 19 20  1  0  0  0  0
 20 21  1  0  0  0  0
 21 22  1  0  0  0  0
 22 23  1  0  0  0  0
 23 24  1  0  0  0  0
M  END
> <RowID>
752

> <Original_SMILES>
CCCC1=CC2OCOC=2C=C1COCCOCCOCCCC

> <Canonical_QSARr>
CCCC1=CC2OCOC=2C=C1COCCOCCOCCCC

> <InChI_Code_QSARr>
InChI=1S/C19H30O5/c1-3-5-7-20-8-9-21-10-11-22-14-17-13-19-18(23-15-24-19)12-16(17)6-4-2/h12-13H,3-11,14-15H2,1-2H3

> <InChI Key_QSARr>
FIPWRIJSWJWJAI-UHFFFAOYSA-N

> <Salt_Solvent>


> <Salt_Solvent_ID>
0

> <Number of connected components>
1

$$$$
Molecule_753
  Mrv2316 01072400032D          

 13 12  0  0  0  0            999 V2000
    2.2539   -1.6500    0.0000 O   0  0  0  0  0  0  0  0  0  0  0  0
    1.5395   -1.2375    0.0000 S   0  0  0  0  0  0  0  0  0  0  0  0
    1.9520   -0.5230    0.0000 O   0  0  0  0  0  0  0  0  0  0  0  0
    1.1270   -1.9520    0.0000 O   0  0  0  0  0  0  0  0  0  0  0  0
    0.8250   -0.8250    0.0000 C   0  0  0  0  0  0  0  0  0  0  0  0
    0.8250   -0.0000    0.0000 C   0  0  0  0  0  0  0  0  0  0  0  0
    1.6500   -0.0000    0.0000 C   0  0  0  0  0  0  0  0  0  0  0  0
    0.8250    0.8250    0.0000 N   0  0  0  0  0  0  0  0  0  0  0  0
    0.1105    1.2375    0.0000 C   0  0  0  0  0  0  0  0  0  0  0  0
    0.1105    2.0625    0.0000 C   0  0  0  0  0  0  0  0  0  0  0  0
   -0.6039    2.4750    0.0000 C   0  0  0  0  0  0  0  0  0  0  0  0
   -0.6039    0.8250    0.0000 O   0  0  0  0  0  0  0  0  0  0  0  0
    0.0000   -0.0000    0.0000 C   0  0  0  0  0  0  0  0  0  0  0  0
  1  2  1  0  0  0  0
  2  3  2  0  0  0  0
  2  4  2  0  0  0  0
  2  5  1  0  0  0  0
  5  6  1  0  0  0  0
  6  7  1  0  0  0  0
  6  8  1  0  0  0  0
  8  9  1  0  0  0  0
  9 10  1  0  0  0  0
 10 11  2  0  0  0  0
  9 12  2  0  0  0  0
  6 13  1  0  0  0  0
M  END
> <RowID>
753

> <Original_SMILES>
[NH4+].CC(C)(CS([O-])(=O)=O)NC(=O)C=C

> <Canonical_QSARr>
CC(C)(CS(O)(=O)=O)NC(=O)C=C

> <InChI_Code_QSARr>
InChI=1S/C7H13NO4S/c1-4-6(9)8-7(2,3)5-13(10,11)12/h4H,1,5H2,2-3H3,(H,8,9)(H,10,11,12)

> <InChI Key_QSARr>
XHZPRMZZQOIPDS-UHFFFAOYSA-N

> <Salt_Solvent>
[NH4+]

> <Salt_Solvent_ID>
70

> <Number of connected components>
2

$$$$
Molecule_754
  Mrv2316 01072400032D          

  9  9  0  0  0  0            999 V2000
    2.1434   -0.4125    0.0000 O   0  0  0  0  0  0  0  0  0  0  0  0
    1.4289   -0.0000    0.0000 C   0  0  0  0  0  0  0  0  0  0  0  0
    1.4289    0.8250    0.0000 N   0  0  0  0  0  0  0  0  0  0  0  0
    0.7145    1.2375    0.0000 C   0  0  0  0  0  0  0  0  0  0  0  0
    0.7145    2.0625    0.0000 O   0  0  0  0  0  0  0  0  0  0  0  0
   -0.0000    0.8250    0.0000 C   0  0  0  0  0  0  0  0  0  0  0  0
   -0.0000    0.0000    0.0000 C   0  0  0  0  0  0  0  0  0  0  0  0
   -0.7145   -0.4125    0.0000 O   0  0  0  0  0  0  0  0  0  0  0  0
    0.7145   -0.4125    0.0000 N   0  0  0  0  0  0  0  0  0  0  0  0
  1  2  2  0  0  0  0
  3  2  1  0  0  0  0
  4  3  1  0  0  0  0
  4  5  2  0  0  0  0
  6  4  1  0  0  0  0
  7  6  1  0  0  0  0
  7  8  2  0  0  0  0
  9  7  1  0  0  0  0
  2  9  1  0  0  0  0
M  END
> <RowID>
754

> <Original_SMILES>
O=C1NC(=O)CC(=O)N1

> <Canonical_QSARr>
O=C1NC(=O)CC(=O)N1

> <InChI_Code_QSARr>
InChI=1S/C4H4N2O3/c7-2-1-3(8)6-4(9)5-2/h1H2,(H2,5,6,7,8,9)

> <InChI Key_QSARr>
HNYOPLTXPVRDBG-UHFFFAOYSA-N

> <Salt_Solvent>


> <Salt_Solvent_ID>
0

> <Number of connected components>
1

$$$$
Molecule_755
  Mrv2316 01072400032D          

 63 62  0  0  0  0            999 V2000
   30.6637   25.9527    0.0000 C   0  0  0  0  0  0  0  0  0  0  0  0
   30.6637   25.1277    0.0000 C   0  0  0  0  0  0  0  0  0  0  0  0
   31.3781   24.7152    0.0000 C   0  0  0  0  0  0  0  0  0  0  0  0
   31.3781   23.8902    0.0000 C   0  0  0  0  0  0  0  0  0  0  0  0
   32.0926   23.4777    0.0000 C   0  0  0  0  0  0  0  0  0  0  0  0
   32.0926   22.6527    0.0000 C   0  0  0  0  0  0  0  0  0  0  0  0
   32.8071   22.2402    0.0000 C   0  0  0  0  0  0  0  0  0  0  0  0
   32.8071   21.4152    0.0000 C   0  0  0  0  0  0  0  0  0  0  0  0
   33.5216   21.0027    0.0000 C   0  0  0  0  0  0  0  0  0  0  0  0
   33.5216   20.1777    0.0000 C   0  0  0  0  0  0  0  0  0  0  0  0
   34.2360   19.7652    0.0000 C   0  0  0  0  0  0  0  0  0  0  0  0
   34.2360   18.9402    0.0000 C   0  0  0  0  0  0  0  0  0  0  0  0
   34.9505   18.5277    0.0000 C   0  0  0  0  0  0  0  0  0  0  0  0
   34.9505   17.7027    0.0000 C   0  0  0  0  0  0  0  0  0  0  0  0
   35.6650   17.2902    0.0000 C   0  0  0  0  0  0  0  0  0  0  0  0
   35.6650   16.4652    0.0000 C   0  0  0  0  0  0  0  0  0  0  0  0
   36.3794   16.0527    0.0000 C   0  0  0  0  0  0  0  0  0  0  0  0
   36.3794   15.2277    0.0000 C   0  0  0  0  0  0  0  0  0  0  0  0
   35.6650   14.8152    0.0000 O   0  0  0  0  0  0  0  0  0  0  0  0
   37.0939   14.8152    0.0000 O   0  0  0  0  0  0  0  0  0  0  0  0
   37.0939   13.9902    0.0000 C   0  0  0  0  0  0  0  0  0  0  0  0
   36.3794   13.5777    0.0000 C   0  0  0  0  0  0  0  0  0  0  0  0
   35.6650   13.9902    0.0000 O   0  0  0  0  0  0  0  0  0  0  0  0
   34.9505   13.5777    0.0000 C   0  0  0  0  0  0  0  0  0  0  0  0
   34.9505   12.7527    0.0000 O   0  0  0  0  0  0  0  0  0  0  0  0
   34.2360   13.9902    0.0000 C   0  0  0  0  0  0  0  0  0  0  0  0
   33.5216   13.5777    0.0000 C   0  0  0  0  0  0  0  0  0  0  0  0
   32.8071   13.9902    0.0000 C   0  0  0  0  0  0  0  0  0  0  0  0
   32.0926   13.5777    0.0000 C   0  0  0  0  0  0  0  0  0  0  0  0
   31.3781   13.9902    0.0000 C   0  0  0  0  0  0  0  0  0  0  0  0
   30.6637   13.5777    0.0000 C   0  0  0  0  0  0  0  0  0  0  0  0
   29.9492   13.9902    0.0000 C   0  0  0  0  0  0  0  0  0  0  0  0
   29.2347   13.5777    0.0000 C   0  0  0  0  0  0  0  0  0  0  0  0
   28.5203   13.9902    0.0000 C   0  0  0  0  0  0  0  0  0  0  0  0
   27.8058   13.5777    0.0000 C   0  0  0  0  0  0  0  0  0  0  0  0
   27.0913   13.9902    0.0000 C   0  0  0  0  0  0  0  0  0  0  0  0
   26.3769   13.5777    0.0000 C   0  0  0  0  0  0  0  0  0  0  0  0
   25.6624   13.9902    0.0000 C   0  0  0  0  0  0  0  0  0  0  0  0
   24.9479   13.5777    0.0000 C   0  0  0  0  0  0  0  0  0  0  0  0
   24.2334   13.9902    0.0000 C   0  0  0  0  0  0  0  0  0  0  0  0
   23.5190   13.5777    0.0000 C   0  0  0  0  0  0  0  0  0  0  0  0
   22.8045   13.9902    0.0000 C   0  0  0  0  0  0  0  0  0  0  0  0
   37.8084   13.5777    0.0000 C   0  0  0  0  0  0  0  0  0  0  0  0
   38.5229   13.9902    0.0000 O   0  0  0  0  0  0  0  0  0  0  0  0
   39.2373   13.5777    0.0000 C   0  0  0  0  0  0  0  0  0  0  0  0
   39.2373   12.7527    0.0000 O   0  0  0  0  0  0  0  0  0  0  0  0
   39.9518   13.9902    0.0000 C   0  0  0  0  0  0  0  0  0  0  0  0
   40.6663   13.5777    0.0000 C   0  0  0  0  0  0  0  0  0  0  0  0
   41.3807   13.9902    0.0000 C   0  0  0  0  0  0  0  0  0  0  0  0
   42.0952   13.5777    0.0000 C   0  0  0  0  0  0  0  0  0  0  0  0
   42.8097   13.9902    0.0000 C   0  0  0  0  0  0  0  0  0  0  0  0
   43.5242   13.5777    0.0000 C   0  0  0  0  0  0  0  0  0  0  0  0
   44.2386   13.9902    0.0000 C   0  0  0  0  0  0  0  0  0  0  0  0
   44.9531   13.5777    0.0000 C   0  0  0  0  0  0  0  0  0  0  0  0
   45.6676   13.9902    0.0000 C   0  0  0  0  0  0  0  0  0  0  0  0
   46.3820   13.5777    0.0000 C   0  0  0  0  0  0  0  0  0  0  0  0
   47.0965   13.9902    0.0000 C   0  0  0  0  0  0  0  0  0  0  0  0
   47.8110   13.5777    0.0000 C   0  0  0  0  0  0  0  0  0  0  0  0
   48.5255   13.9902    0.0000 C   0  0  0  0  0  0  0  0  0  0  0  0
   49.2399   13.5777    0.0000 C   0  0  0  0  0  0  0  0  0  0  0  0
   49.9544   13.9902    0.0000 C   0  0  0  0  0  0  0  0  0  0  0  0
   50.6689   13.5777    0.0000 C   0  0  0  0  0  0  0  0  0  0  0  0
   51.3833   13.9902    0.0000 C   0  0  0  0  0  0  0  0  0  0  0  0
  1  2  1  0  0  0  0
  2  3  1  0  0  0  0
  3  4  1  0  0  0  0
  4  5  1  0  0  0  0
  5  6  1  0  0  0  0
  6  7  1  0  0  0  0
  7  8  1  0  0  0  0
  8  9  1  0  0  0  0
  9 10  1  0  0  0  0
 10 11  1  0  0  0  0
 11 12  1  0  0  0  0
 12 13  1  0  0  0  0
 13 14  1  0  0  0  0
 14 15  1  0  0  0  0
 15 16  1  0  0  0  0
 16 17  1  0  0  0  0
 17 18  1  0  0  0  0
 18 19  2  0  0  0  0
 18 20  1  0  0  0  0
 20 21  1  0  0  0  0
 21 22  1  0  0  0  0
 22 23  1  0  0  0  0
 23 24  1  0  0  0  0
 24 25  2  0  0  0  0
 24 26  1  0  0  0  0
 26 27  1  0  0  0  0
 27 28  1  0  0  0  0
 28 29  1  0  0  0  0
 29 30  1  0  0  0  0
 30 31  1  0  0  0  0
 31 32  1  0  0  0  0
 32 33  1  0  0  0  0
 33 34  1  0  0  0  0
 34 35  1  0  0  0  0
 35 36  1  0  0  0  0
 36 37  1  0  0  0  0
 37 38  1  0  0  0  0
 38 39  1  0  0  0  0
 39 40  1  0  0  0  0
 40 41  1  0  0  0  0
 41 42  1  0  0  0  0
 21 43  1  0  0  0  0
 43 44  1  0  0  0  0
 44 45  1  0  0  0  0
 45 46  2  0  0  0  0
 45 47  1  0  0  0  0
 47 48  1  0  0  0  0
 48 49  1  0  0  0  0
 49 50  1  0  0  0  0
 50 51  1  0  0  0  0
 51 52  1  0  0  0  0
 52 53  1  0  0  0  0
 53 54  1  0  0  0  0
 54 55  1  0  0  0  0
 55 56  1  0  0  0  0
 56 57  1  0  0  0  0
 57 58  1  0  0  0  0
 58 59  1  0  0  0  0
 59 60  1  0  0  0  0
 60 61  1  0  0  0  0
 61 62  1  0  0  0  0
 62 63  1  0  0  0  0
M  END
> <RowID>
755

> <Original_SMILES>
CCCCCCCCCCCCCCCCCC(=O)OC(COC(=O)CCCCCCCCCCCCCCCCC)COC(=O)CCCCCCCCCCCCCCCCC

> <Canonical_QSARr>
CCCCCCCCCCCCCCCCCC(=O)OC(COC(=O)CCCCCCCCCCCCCCCCC)COC(=O)CCCCCCCCCCCCCCCCC

> <InChI_Code_QSARr>
InChI=1S/C57H110O6/c1-4-7-10-13-16-19-22-25-28-31-34-37-40-43-46-49-55(58)61-52-54(63-57(60)51-48-45-42-39-36-33-30-27-24-21-18-15-12-9-6-3)53-62-56(59)50-47-44-41-38-35-32-29-26-23-20-17-14-11-8-5-2/h54H,4-53H2,1-3H3

> <InChI Key_QSARr>
DCXXMTOCNZCJGO-UHFFFAOYSA-N

> <Salt_Solvent>


> <Salt_Solvent_ID>
0

> <Number of connected components>
1

$$$$
Molecule_756
  Mrv2316 01072400032D          

 17 16  0  0  0  0            999 V2000
    1.9520   -0.5230    0.0000 C   0  0  0  0  0  0  0  0  0  0  0  0
    1.9520    0.3020    0.0000 C   0  0  0  0  0  0  0  0  0  0  0  0
    1.2375    0.7145    0.0000 C   0  0  0  0  0  0  0  0  0  0  0  0
    0.5230    1.1270    0.0000 C   0  0  0  0  0  0  0  0  0  0  0  0
    0.5230    1.9520    0.0000 O   0  0  0  0  0  0  0  0  0  0  0  0
   -0.1914    2.3645    0.0000 C   0  0  0  0  0  0  0  0  0  0  0  0
   -0.1914    3.1895    0.0000 C   0  0  0  0  0  0  0  0  0  0  0  0
   -0.1914    4.0145    0.0000 C   0  0  0  0  0  0  0  0  0  0  0  0
   -0.9059    4.4270    0.0000 O   0  0  0  0  0  0  0  0  0  0  0  0
    0.6336    3.1895    0.0000 C   0  0  0  0  0  0  0  0  0  0  0  0
    1.0461    3.9040    0.0000 O   0  0  0  0  0  0  0  0  0  0  0  0
   -1.0164    3.1895    0.0000 C   0  0  0  0  0  0  0  0  0  0  0  0
   -1.4289    3.9040    0.0000 C   0  0  0  0  0  0  0  0  0  0  0  0
    1.6500    1.4290    0.0000 C   0  0  0  0  0  0  0  0  0  0  0  0
    1.2375    2.1434    0.0000 O   0  0  0  0  0  0  0  0  0  0  0  0
    0.8250    0.0000    0.0000 C   0  0  0  0  0  0  0  0  0  0  0  0
    0.0000    0.0000    0.0000 O   0  0  0  0  0  0  0  0  0  0  0  0
  1  2  1  0  0  0  0
  2  3  1  0  0  0  0
  3  4  1  0  0  0  0
  4  5  1  0  0  0  0
  5  6  1  0  0  0  0
  6  7  1  0  0  0  0
  7  8  1  0  0  0  0
  8  9  1  0  0  0  0
  7 10  1  0  0  0  0
 10 11  1  0  0  0  0
  7 12  1  0  0  0  0
 12 13  1  0  0  0  0
  3 14  1  0  0  0  0
 14 15  1  0  0  0  0
  3 16  1  0  0  0  0
 16 17  1  0  0  0  0
M  END
> <RowID>
756

> <Original_SMILES>
CCC(COCC(CO)(CO)CC)(CO)CO

> <Canonical_QSARr>
CCC(COCC(CO)(CO)CC)(CO)CO

> <InChI_Code_QSARr>
InChI=1S/C12H26O5/c1-3-11(5-13,6-14)9-17-10-12(4-2,7-15)8-16/h13-16H,3-10H2,1-2H3

> <InChI Key_QSARr>
WMYINDVYGQKYMI-UHFFFAOYSA-N

> <Salt_Solvent>


> <Salt_Solvent_ID>
0

> <Number of connected components>
1

$$$$
Molecule_757
  Mrv2316 01072400032D          

 27 29  0  0  0  0            999 V2000
   -1.5612   -2.0625    0.0000 O   0  0  0  0  0  0  0  0  0  0  0  0
   -0.8468   -1.6500    0.0000 S   0  0  0  0  0  0  0  0  0  0  0  0
   -0.4343   -2.3645    0.0000 O   0  0  0  0  0  0  0  0  0  0  0  0
   -1.2593   -0.9355    0.0000 O   0  0  0  0  0  0  0  0  0  0  0  0
   -0.1323   -1.2375    0.0000 C   0  0  0  0  0  0  0  0  0  0  0  0
   -0.1323   -0.4125    0.0000 C   0  0  0  0  0  0  0  0  0  0  0  0
    0.5822    0.0000    0.0000 C   0  0  0  0  0  0  0  0  0  0  0  0
    1.2966   -0.4125    0.0000 C   0  0  0  0  0  0  0  0  0  0  0  0
    2.0111    0.0000    0.0000 C   0  0  0  0  0  0  0  0  0  0  0  0
    2.7256   -0.4125    0.0000 C   0  0  0  0  0  0  0  0  0  0  0  0
    3.4400   -0.0000    0.0000 O   0  0  0  0  0  0  0  0  0  0  0  0
    2.7256   -1.2375    0.0000 C   0  0  0  0  0  0  0  0  0  0  0  0
    2.0111   -1.6500    0.0000 C   0  0  0  0  0  0  0  0  0  0  0  0
    1.2966   -1.2375    0.0000 C   0  0  0  0  0  0  0  0  0  0  0  0
    0.5822   -1.6500    0.0000 C   0  0  0  0  0  0  0  0  0  0  0  0
    2.0111    0.8250    0.0000 N   0  0  0  0  0  0  0  0  0  0  0  0
    2.7256    1.2375    0.0000 N   0  0  0  0  0  0  0  0  0  0  0  0
    2.7256    2.0625    0.0000 C   0  0  0  0  0  0  0  0  0  0  0  0
    3.4400    2.4750    0.0000 C   0  0  0  0  0  0  0  0  0  0  0  0
    4.1545    2.0625    0.0000 C   0  0  0  0  0  0  0  0  0  0  0  0
    4.8690    2.4750    0.0000 O   0  0  0  0  0  0  0  0  0  0  0  0
    4.1545    1.2375    0.0000 O   0  0  0  0  0  0  0  0  0  0  0  0
    3.4400    3.3000    0.0000 C   0  0  0  0  0  0  0  0  0  0  0  0
    2.7256    3.7125    0.0000 C   0  0  0  0  0  0  0  0  0  0  0  0
    2.0111    3.3000    0.0000 C   0  0  0  0  0  0  0  0  0  0  0  0
    1.2966    3.7125    0.0000 Cl  0  0  0  0  0  0  0  0  0  0  0  0
    2.0111    2.4750    0.0000 C   0  0  0  0  0  0  0  0  0  0  0  0
  1  2  1  0  0  0  0
  2  3  2  0  0  0  0
  2  4  2  0  0  0  0
  2  5  1  0  0  0  0
  6  5  1  0  0  0  0
  7  6  2  0  0  0  0
  8  7  1  0  0  0  0
  8  9  1  0  0  0  0
  9 10  1  0  0  0  0
 10 11  2  0  0  0  0
 10 12  1  0  0  0  0
 12 13  2  0  0  0  0
 13 14  1  0  0  0  0
 14  8  2  0  0  0  0
 15 14  1  0  0  0  0
  5 15  2  0  0  0  0
 16  9  1  4  0  0  0
 16 17  2  0  0  0  0
 17 18  1  0  0  0  0
 19 18  2  0  0  0  0
 19 20  1  0  0  0  0
 20 21  1  0  0  0  0
 20 22  2  0  0  0  0
 23 19  1  0  0  0  0
 24 23  2  0  0  0  0
 25 24  1  0  0  0  0
 25 26  1  0  0  0  0
 27 25  2  0  0  0  0
 18 27  1  0  0  0  0
M  END
> <RowID>
757

> <Original_SMILES>
[Sr+2].[O-]C(=O)C1C=CC(Cl)=CC=1NN=C1C2=CC=C(C=C2C=CC1=O)S([O-])(=O)=O

> <Canonical_QSARr>
OC(=O)C1C=CC(Cl)=CC=1N=NC1C2C=CC(=CC=2C=CC1=O)S(O)(=O)=O

> <InChI_Code_QSARr>
InChI=1S/C17H11ClN2O6S/c18-10-2-4-13(17(22)23)14(8-10)19-20-16-12-5-3-11(27(24,25)26)7-9(12)1-6-15(16)21/h1-8,16H,(H,22,23)(H,24,25,26)

> <InChI Key_QSARr>
ANOBTESVYXPNKS-UHFFFAOYSA-N

> <Salt_Solvent>
[Sr+2]

> <Salt_Solvent_ID>
380

> <Number of connected components>
2

$$$$
Molecule_758
  Mrv2316 01072400032D          

 18 18  0  0  0  0            999 V2000
   -2.8976   -0.2062    0.0000 O   0  5  0  0  0  0  0  0  0  0  0  0
   -2.1831    0.2063    0.0000 N   0  3  0  0  0  0  0  0  0  0  0  0
   -1.4686   -0.2062    0.0000 C   0  0  0  0  0  0  0  0  0  0  0  0
   -1.4686   -1.0312    0.0000 C   0  0  0  0  0  0  0  0  0  0  0  0
   -0.7542   -1.4437    0.0000 C   0  0  0  0  0  0  0  0  0  0  0  0
   -0.0397   -1.0312    0.0000 C   0  0  0  0  0  0  0  0  0  0  0  0
   -0.0397   -0.2062    0.0000 C   0  0  0  0  0  0  0  0  0  0  0  0
   -0.7542    0.2063    0.0000 C   0  0  0  0  0  0  0  0  0  0  0  0
   -0.7542    1.0313    0.0000 C   0  0  0  0  0  0  0  0  0  0  0  0
   -0.0397    1.4437    0.0000 C   0  0  0  0  0  0  0  0  0  0  0  0
   -0.0397    2.2688    0.0000 C   0  0  0  0  0  0  0  0  0  0  0  0
   -0.7542    2.6813    0.0000 O   0  0  0  0  0  0  0  0  0  0  0  0
    0.6748    2.6812    0.0000 O   0  0  0  0  0  0  0  0  0  0  0  0
    0.6748    3.5062    0.0000 C   0  0  0  0  0  0  0  0  0  0  0  0
    0.6748    1.0312    0.0000 C   0  0  0  0  0  0  0  0  0  0  0  0
    1.3893    1.4437    0.0000 O   0  0  0  0  0  0  0  0  0  0  0  0
    0.6748    0.2062    0.0000 C   0  0  0  0  0  0  0  0  0  0  0  0
   -2.1831    1.0313    0.0000 O   0  0  0  0  0  0  0  0  0  0  0  0
  1  2  1  0  0  0  0
  2  3  1  0  0  0  0
  4  3  1  0  0  0  0
  5  4  2  0  0  0  0
  6  5  1  0  0  0  0
  7  6  2  0  0  0  0
  8  7  1  0  0  0  0
  3  8  2  0  0  0  0
  9  8  1  4  0  0  0
  9 10  2  0  0  0  0
 10 11  1  0  0  0  0
 11 12  2  0  0  0  0
 11 13  1  0  0  0  0
 13 14  1  0  0  0  0
 10 15  1  0  0  0  0
 15 16  2  0  0  0  0
 15 17  1  0  0  0  0
  2 18  2  0  0  0  0
M  CHG  2   1  -1   2   1
M  END
> <RowID>
758

> <Original_SMILES>
CC(=O)C(=CC1C=CC=CC=1N(=O)=O)C(=O)OC

> <Canonical_QSARr>
CC(=O)C(=CC1C=CC=CC=1[N+]([O-])=O)C(=O)OC

> <InChI_Code_QSARr>
InChI=1S/C12H11NO5/c1-8(14)10(12(15)18-2)7-9-5-3-4-6-11(9)13(16)17/h3-7H,1-2H3

> <InChI Key_QSARr>
APKKCRAKPMSAEI-UHFFFAOYSA-N

> <Salt_Solvent>


> <Salt_Solvent_ID>
0

> <Number of connected components>
1

$$$$
Molecule_759
  Mrv2316 01072400032D          

 35 40  0  0  0  0            999 V2000
    3.5330   -1.5979    0.0000 C   0  0  0  0  0  0  0  0  0  0  0  0
    3.8928   -2.3403    0.0000 C   0  0  0  0  0  0  0  0  0  0  0  0
    4.4247   -1.7096    0.0000 C   0  0  0  0  0  0  0  0  0  0  0  0
    5.2368   -1.8548    0.0000 C   0  0  0  0  0  0  0  0  0  0  0  0
    5.5171   -2.6307    0.0000 C   0  0  0  0  0  0  0  0  0  0  0  0
    4.9853   -3.2614    0.0000 C   0  0  0  0  0  0  0  0  0  0  0  0
    5.2656   -4.0373    0.0000 C   0  0  0  0  0  0  0  0  0  0  0  0
    6.0777   -4.1825    0.0000 C   0  0  0  0  0  0  0  0  0  0  0  0
    6.6095   -3.5518    0.0000 C   0  0  0  0  0  0  0  0  0  0  0  0
    7.4216   -3.6971    0.0000 C   0  0  0  0  0  0  0  0  0  0  0  0
    7.9534   -3.0663    0.0000 C   0  0  0  0  0  0  0  0  0  0  0  0
    8.7656   -3.2116    0.0000 O   0  0  0  0  0  0  0  0  0  0  0  0
    7.6731   -2.2904    0.0000 C   0  0  0  0  0  0  0  0  0  0  0  0
    8.2050   -1.6597    0.0000 N   0  0  0  0  0  0  0  0  0  0  0  0
    9.0171   -1.8049    0.0000 C   0  0  0  0  0  0  0  0  0  0  0  0
    9.5489   -1.1742    0.0000 C   0  0  0  0  0  0  0  0  0  0  0  0
    9.2686   -0.3983    0.0000 O   0  0  0  0  0  0  0  0  0  0  0  0
    8.4565   -0.2531    0.0000 C   0  0  0  0  0  0  0  0  0  0  0  0
    7.9247   -0.8838    0.0000 C   0  0  0  0  0  0  0  0  0  0  0  0
    6.8610   -2.1452    0.0000 C   0  0  0  0  0  0  0  0  0  0  0  0
    6.3292   -2.7759    0.0000 C   0  0  0  0  0  0  0  0  0  0  0  0
    6.0489   -2.0000    0.0000 C   0  0  0  0  0  0  0  0  0  0  0  0
    4.1731   -3.1162    0.0000 C   0  0  0  0  0  0  0  0  0  0  0  0
    3.5218   -3.6225    0.0000 C   0  0  0  0  0  0  0  0  0  0  0  0
    2.8390   -3.1596    0.0000 C   0  0  0  0  0  0  0  0  0  0  0  0
    2.0630   -3.4399    0.0000 N   0  0  0  0  0  0  0  0  0  0  0  0
    1.3802   -2.9769    0.0000 C   0  0  0  0  0  0  0  0  0  0  0  0
    0.7289   -3.4832    0.0000 C   0  0  0  0  0  0  0  0  0  0  0  0
    1.0092   -4.2592    0.0000 C   0  0  0  0  0  0  0  0  0  0  0  0
    1.8337   -4.2324    0.0000 C   0  0  0  0  0  0  0  0  0  0  0  0
    3.0683   -2.3671    0.0000 C   0  0  0  0  0  0  0  0  0  0  0  0
    2.5619   -1.7157    0.0000 O   0  0  0  0  0  0  0  0  0  0  0  0
    2.8728   -0.9516    0.0000 C   0  0  0  0  0  0  0  0  0  0  0  0
    3.6901   -0.8387    0.0000 C   0  0  0  0  0  0  0  0  0  0  0  0
    2.3665   -0.3002    0.0000 O   0  0  0  0  0  0  0  0  0  0  0  0
  1  2  1  0  0  0  0
  3  2  1  0  0  0  0
  4  3  1  0  0  0  0
  5  4  1  0  0  0  0
  5  6  1  0  0  0  0
  6  7  1  0  0  0  0
  7  8  1  0  0  0  0
  8  9  1  0  0  0  0
 10  9  1  0  0  0  0
 11 10  1  0  0  0  0
 11 12  1  0  0  0  0
 13 11  1  0  0  0  0
 13 14  1  0  0  0  0
 15 14  1  0  0  0  0
 16 15  1  0  0  0  0
 17 16  1  0  0  0  0
 18 17  1  0  0  0  0
 19 18  1  0  0  0  0
 14 19  1  0  0  0  0
 20 13  1  0  0  0  0
 21 20  1  0  0  0  0
  9 21  1  0  0  0  0
 21  5  1  0  0  0  0
 21 22  1  0  0  0  0
 23  6  1  0  0  0  0
 23  2  1  0  0  0  0
 24 23  1  0  0  0  0
 25 24  1  0  0  0  0
 25 26  1  0  0  0  0
 27 26  1  0  0  0  0
 28 27  1  0  0  0  0
 29 28  1  0  0  0  0
 30 29  1  0  0  0  0
 26 30  1  0  0  0  0
 31 25  1  0  0  0  0
  2 31  1  0  0  0  0
 31 32  1  0  0  0  0
 32 33  1  0  0  0  0
 33 34  1  0  0  0  0
 33 35  2  0  0  0  0
M  END
> <RowID>
759

> <Original_SMILES>
CC12CCC3C(CCC4CC(O)C(CC43C)N3CCOCC3)C1CC(C2OC(C)=O)N1CCCC1

> <Canonical_QSARr>
CC12CCC3C(CCC4CC(O)C(CC43C)N3CCOCC3)C1CC(C2OC(C)=O)N1CCCC1

> <InChI_Code_QSARr>
InChI=1S/C29H48N2O4/c1-19(32)35-27-24(30-10-4-5-11-30)17-23-21-7-6-20-16-26(33)25(31-12-14-34-15-13-31)18-29(20,3)22(21)8-9-28(23,27)2/h20-27,33H,4-18H2,1-3H3

> <InChI Key_QSARr>
YBZSVMDKHBRYNB-UHFFFAOYSA-N

> <Salt_Solvent>


> <Salt_Solvent_ID>
0

> <Number of connected components>
1

$$$$
Molecule_760
  Mrv2316 01072400032D          

 38 37  0  0  0  0            999 V2000
    1.5691    2.5559    0.0000 C   0  0  0  0  0  0  0  0  0  0  0  0
    2.3941    2.5559    0.0000 C   0  0  0  0  0  0  0  0  0  0  0  0
    2.8066    3.2704    0.0000 C   0  0  0  0  0  0  0  0  0  0  0  0
    3.5211    2.8579    0.0000 C   0  0  0  0  0  0  0  0  0  0  0  0
    4.2355    3.2704    0.0000 O   0  0  0  0  0  0  0  0  0  0  0  0
    4.9500    2.8579    0.0000 C   0  0  0  0  0  0  0  0  0  0  0  0
    4.9500    2.0329    0.0000 O   0  0  0  0  0  0  0  0  0  0  0  0
    5.6645    3.2704    0.0000 C   0  0  0  0  0  0  0  0  0  0  0  0
    6.3789    2.8579    0.0000 C   0  0  0  0  0  0  0  0  0  0  0  0
    7.0934    3.2704    0.0000 C   0  0  0  0  0  0  0  0  0  0  0  0
    7.8079    2.8579    0.0000 C   0  0  0  0  0  0  0  0  0  0  0  0
    8.5224    3.2704    0.0000 C   0  0  0  0  0  0  0  0  0  0  0  0
    9.2368    2.8579    0.0000 C   0  0  0  0  0  0  0  0  0  0  0  0
    9.9513    3.2704    0.0000 C   0  0  0  0  0  0  0  0  0  0  0  0
   10.6658    2.8579    0.0000 C   0  0  0  0  0  0  0  0  0  0  0  0
   11.3802    3.2704    0.0000 C   0  0  0  0  0  0  0  0  0  0  0  0
    2.0921    3.6829    0.0000 C   0  0  0  0  0  0  0  0  0  0  0  0
    1.3776    3.2704    0.0000 O   0  0  0  0  0  0  0  0  0  0  0  0
    0.6632    3.6829    0.0000 C   0  0  0  0  0  0  0  0  0  0  0  0
    0.6632    4.5079    0.0000 O   0  0  0  0  0  0  0  0  0  0  0  0
   -0.0513    3.2704    0.0000 C   0  0  0  0  0  0  0  0  0  0  0  0
   -0.7658    3.6829    0.0000 C   0  0  0  0  0  0  0  0  0  0  0  0
   -1.4802    3.2704    0.0000 C   0  0  0  0  0  0  0  0  0  0  0  0
   -2.1947    3.6829    0.0000 C   0  0  0  0  0  0  0  0  0  0  0  0
   -2.9092    3.2704    0.0000 C   0  0  0  0  0  0  0  0  0  0  0  0
   -3.6236    3.6829    0.0000 C   0  0  0  0  0  0  0  0  0  0  0  0
   -4.3381    3.2704    0.0000 C   0  0  0  0  0  0  0  0  0  0  0  0
    3.2191    3.9849    0.0000 C   0  0  0  0  0  0  0  0  0  0  0  0
    4.0441    3.9849    0.0000 O   0  0  0  0  0  0  0  0  0  0  0  0
    4.4566    4.6993    0.0000 C   0  0  0  0  0  0  0  0  0  0  0  0
    4.0441    5.4138    0.0000 O   0  0  0  0  0  0  0  0  0  0  0  0
    5.2816    4.6993    0.0000 C   0  0  0  0  0  0  0  0  0  0  0  0
    5.6941    5.4138    0.0000 C   0  0  0  0  0  0  0  0  0  0  0  0
    6.5191    5.4138    0.0000 C   0  0  0  0  0  0  0  0  0  0  0  0
    6.9316    6.1283    0.0000 C   0  0  0  0  0  0  0  0  0  0  0  0
    7.7566    6.1283    0.0000 C   0  0  0  0  0  0  0  0  0  0  0  0
    8.1691    6.8427    0.0000 C   0  0  0  0  0  0  0  0  0  0  0  0
    8.9941    6.8427    0.0000 C   0  0  0  0  0  0  0  0  0  0  0  0
  1  2  1  0  0  0  0
  2  3  1  0  0  0  0
  3  4  1  0  0  0  0
  4  5  1  0  0  0  0
  5  6  1  0  0  0  0
  6  7  2  0  0  0  0
  6  8  1  0  0  0  0
  8  9  1  0  0  0  0
  9 10  1  0  0  0  0
 10 11  1  0  0  0  0
 11 12  1  0  0  0  0
 12 13  1  0  0  0  0
 13 14  1  0  0  0  0
 14 15  1  0  0  0  0
 15 16  1  0  0  0  0
  3 17  1  0  0  0  0
 17 18  1  0  0  0  0
 18 19  1  0  0  0  0
 19 20  2  0  0  0  0
 19 21  1  0  0  0  0
 21 22  1  0  0  0  0
 22 23  1  0  0  0  0
 23 24  1  0  0  0  0
 24 25  1  0  0  0  0
 25 26  1  0  0  0  0
 26 27  1  0  0  0  0
  3 28  1  0  0  0  0
 28 29  1  0  0  0  0
 29 30  1  0  0  0  0
 30 31  2  0  0  0  0
 30 32  1  0  0  0  0
 32 33  1  0  0  0  0
 33 34  1  0  0  0  0
 34 35  1  0  0  0  0
 35 36  1  0  0  0  0
 36 37  1  0  0  0  0
 37 38  1  0  0  0  0
M  END
> <RowID>
760

> <Original_SMILES>
CCC(COC(=O)CCCCCCCCC)(COC(=O)CCCCCCC)COC(=O)CCCCCCC

> <Canonical_QSARr>
CCC(COC(=O)CCCCCCCCC)(COC(=O)CCCCCCC)COC(=O)CCCCCCC

> <InChI_Code_QSARr>
InChI=1S/C32H60O6/c1-5-9-12-15-16-19-22-25-31(35)38-28-32(8-4,26-36-29(33)23-20-17-13-10-6-2)27-37-30(34)24-21-18-14-11-7-3/h5-28H2,1-4H3

> <InChI Key_QSARr>
SRVFLHGEWWJTBH-UHFFFAOYSA-N

> <Salt_Solvent>


> <Salt_Solvent_ID>
0

> <Number of connected components>
1

$$$$
Molecule_762
  Mrv2316 01072400032D          

 20 20  0  0  0  0            999 V2000
   -0.5001    4.0837    0.0000 C   0  0  0  0  0  0  0  0  0  0  0  0
   -0.5001    3.2587    0.0000 C   0  0  0  0  0  0  0  0  0  0  0  0
   -1.2146    2.8463    0.0000 C   0  0  0  0  0  0  0  0  0  0  0  0
    0.2143    2.8463    0.0000 C   0  0  0  0  0  0  0  0  0  0  0  0
    0.2143    2.0212    0.0000 O   0  0  0  0  0  0  0  0  0  0  0  0
    0.9288    1.6088    0.0000 C   0  0  0  0  0  0  0  0  0  0  0  0
    1.6433    2.0213    0.0000 O   0  0  0  0  0  0  0  0  0  0  0  0
    0.9288    0.7838    0.0000 C   0  0  0  0  0  0  0  0  0  0  0  0
    0.2143    0.3712    0.0000 C   0  0  0  0  0  0  0  0  0  0  0  0
    0.2143   -0.4538    0.0000 C   0  0  0  0  0  0  0  0  0  0  0  0
    0.9288   -0.8662    0.0000 C   0  0  0  0  0  0  0  0  0  0  0  0
    1.6433   -0.4537    0.0000 C   0  0  0  0  0  0  0  0  0  0  0  0
    1.6433    0.3713    0.0000 C   0  0  0  0  0  0  0  0  0  0  0  0
    2.3578    0.7838    0.0000 C   0  0  0  0  0  0  0  0  0  0  0  0
    2.3578    1.6088    0.0000 O   0  0  0  0  0  0  0  0  0  0  0  0
    3.0722    0.3713    0.0000 O   0  0  0  0  0  0  0  0  0  0  0  0
    3.7867    0.7838    0.0000 C   0  0  0  0  0  0  0  0  0  0  0  0
    4.5012    0.3713    0.0000 C   0  0  0  0  0  0  0  0  0  0  0  0
    5.2156    0.7838    0.0000 C   0  0  0  0  0  0  0  0  0  0  0  0
    4.5012   -0.4537    0.0000 C   0  0  0  0  0  0  0  0  0  0  0  0
  1  2  1  0  0  0  0
  2  3  1  0  0  0  0
  2  4  1  0  0  0  0
  4  5  1  0  0  0  0
  5  6  1  0  0  0  0
  6  7  2  0  0  0  0
  6  8  1  0  0  0  0
  9  8  1  0  0  0  0
 10  9  1  0  0  0  0
 11 10  1  0  0  0  0
 12 11  1  0  0  0  0
 13 12  1  0  0  0  0
  8 13  1  0  0  0  0
 13 14  1  0  0  0  0
 14 15  2  0  0  0  0
 14 16  1  0  0  0  0
 16 17  1  0  0  0  0
 17 18  1  0  0  0  0
 18 19  1  0  0  0  0
 18 20  1  0  0  0  0
M  END
> <RowID>
762

> <Original_SMILES>
CC(C)COC(=O)C1CCCCC1C(=O)OCC(C)C

> <Canonical_QSARr>
CC(C)COC(=O)C1CCCCC1C(=O)OCC(C)C

> <InChI_Code_QSARr>
InChI=1S/C16H28O4/c1-11(2)9-19-15(17)13-7-5-6-8-14(13)16(18)20-10-12(3)4/h11-14H,5-10H2,1-4H3

> <InChI Key_QSARr>
QUKHPBOCBWDYMW-UHFFFAOYSA-N

> <Salt_Solvent>


> <Salt_Solvent_ID>
0

> <Number of connected components>
1

$$$$
Molecule_763
  Mrv2316 01072400032D          

 11 10  0  0  0  0            999 V2000
    2.9980    2.5559    0.0000 C   0  0  0  0  0  0  0  0  0  0  0  0
    3.7125    2.1434    0.0000 C   0  0  0  0  0  0  0  0  0  0  0  0
    3.7125    1.3184    0.0000 C   0  0  0  0  0  0  0  0  0  0  0  0
    4.4270    2.5559    0.0000 C   0  0  0  0  0  0  0  0  0  0  0  0
    5.1414    2.1434    0.0000 C   0  0  0  0  0  0  0  0  0  0  0  0
    5.8559    2.5559    0.0000 O   0  0  0  0  0  0  0  0  0  0  0  0
    6.5704    2.1434    0.0000 C   0  0  0  0  0  0  0  0  0  0  0  0
    7.2849    2.5559    0.0000 C   0  0  0  0  0  0  0  0  0  0  0  0
    7.9993    2.1434    0.0000 C   0  0  0  0  0  0  0  0  0  0  0  0
    8.7138    2.5559    0.0000 C   0  0  0  0  0  0  0  0  0  0  0  0
    7.9993    1.3184    0.0000 C   0  0  0  0  0  0  0  0  0  0  0  0
  1  2  1  0  0  0  0
  2  3  1  0  0  0  0
  2  4  1  0  0  0  0
  4  5  1  0  0  0  0
  5  6  1  0  0  0  0
  6  7  1  0  0  0  0
  7  8  1  0  0  0  0
  8  9  1  0  0  0  0
  9 10  1  0  0  0  0
  9 11  1  0  0  0  0
M  END
> <RowID>
763

> <Original_SMILES>
CC(C)CCOCCC(C)C

> <Canonical_QSARr>
CC(C)CCOCCC(C)C

> <InChI_Code_QSARr>
InChI=1S/C10H22O/c1-9(2)5-7-11-8-6-10(3)4/h9-10H,5-8H2,1-4H3

> <InChI Key_QSARr>
AQZGPSLYZOOYQP-UHFFFAOYSA-N

> <Salt_Solvent>


> <Salt_Solvent_ID>
0

> <Number of connected components>
1

$$$$
Molecule_764
  Mrv2316 01072400032D          

  9  9  0  0  0  0            999 V2000
    2.3022   -0.6875    0.0000 C   0  0  0  0  0  0  0  0  0  0  0  0
    1.5877   -0.2750    0.0000 C   0  0  0  0  0  0  0  0  0  0  0  0
    1.5877    0.5500    0.0000 C   0  0  0  0  0  0  0  0  0  0  0  0
    0.8732    0.9625    0.0000 C   0  0  0  0  0  0  0  0  0  0  0  0
    0.8732    1.7875    0.0000 Cl  0  0  0  0  0  0  0  0  0  0  0  0
    0.1588    0.5500    0.0000 C   0  0  0  0  0  0  0  0  0  0  0  0
   -0.5557    0.9625    0.0000 Cl  0  0  0  0  0  0  0  0  0  0  0  0
    0.1588   -0.2750    0.0000 C   0  0  0  0  0  0  0  0  0  0  0  0
    0.8732   -0.6875    0.0000 C   0  0  0  0  0  0  0  0  0  0  0  0
  1  2  1  0  0  0  0
  3  2  2  0  0  0  0
  4  3  1  0  0  0  0
  4  5  1  0  0  0  0
  6  4  2  0  0  0  0
  6  7  1  0  0  0  0
  8  6  1  0  0  0  0
  9  8  2  0  0  0  0
  2  9  1  0  0  0  0
M  END
> <RowID>
764

> <Original_SMILES>
CC1=CC(Cl)=C(Cl)C=C1

> <Canonical_QSARr>
CC1=CC(Cl)=C(Cl)C=C1

> <InChI_Code_QSARr>
InChI=1S/C7H6Cl2/c1-5-2-3-6(8)7(9)4-5/h2-4H,1H3

> <InChI Key_QSARr>
WYUIWKFIFOJVKW-UHFFFAOYSA-N

> <Salt_Solvent>


> <Salt_Solvent_ID>
0

> <Number of connected components>
1

$$$$
Molecule_765
  Mrv2316 01072400032D          

 27 29  0  0  0  0            999 V2000
    1.7329   -4.1608    0.0000 C   0  0  0  0  0  0  0  0  0  0  0  0
    1.1809   -3.5477    0.0000 C   0  0  0  0  0  0  0  0  0  0  0  0
    1.4358   -2.7631    0.0000 C   0  0  0  0  0  0  0  0  0  0  0  0
    0.8838   -2.1500    0.0000 C   0  0  0  0  0  0  0  0  0  0  0  0
    1.1387   -1.3654    0.0000 C   0  0  0  0  0  0  0  0  0  0  0  0
    0.6538   -0.6979    0.0000 C   0  0  0  0  0  0  0  0  0  0  0  0
   -0.1712   -0.6979    0.0000 O   0  0  0  0  0  0  0  0  0  0  0  0
    1.1387   -0.0305    0.0000 O   0  0  0  0  0  0  0  0  0  0  0  0
    1.9233   -0.2854    0.0000 C   0  0  0  0  0  0  0  0  0  0  0  0
    2.6378    0.1271    0.0000 C   0  0  0  0  0  0  0  0  0  0  0  0
    3.3523   -0.2854    0.0000 C   0  0  0  0  0  0  0  0  0  0  0  0
    3.3523   -1.1104    0.0000 C   0  0  0  0  0  0  0  0  0  0  0  0
    2.6378   -1.5229    0.0000 C   0  0  0  0  0  0  0  0  0  0  0  0
    1.9233   -1.1104    0.0000 C   0  0  0  0  0  0  0  0  0  0  0  0
    4.0668   -1.5229    0.0000 C   0  0  0  0  0  0  0  0  0  0  0  0
    4.7812   -1.9354    0.0000 C   0  0  0  0  0  0  0  0  0  0  0  0
    4.4793   -0.8085    0.0000 C   0  0  0  0  0  0  0  0  0  0  0  0
    3.6543   -2.2374    0.0000 C   0  0  0  0  0  0  0  0  0  0  0  0
    2.6378    0.9521    0.0000 C   0  0  0  0  0  0  0  0  0  0  0  0
    2.6378    1.7771    0.0000 C   0  0  0  0  0  0  0  0  0  0  0  0
    3.4628    0.9521    0.0000 C   0  0  0  0  0  0  0  0  0  0  0  0
    1.8128    0.9521    0.0000 C   0  0  0  0  0  0  0  0  0  0  0  0
    0.0768   -2.3215    0.0000 C   0  0  0  0  0  0  0  0  0  0  0  0
   -0.1781   -3.1061    0.0000 C   0  0  0  0  0  0  0  0  0  0  0  0
   -0.9851   -3.2777    0.0000 C   0  0  0  0  0  0  0  0  0  0  0  0
    0.3739   -3.7192    0.0000 C   0  0  0  0  0  0  0  0  0  0  0  0
    0.1190   -4.5038    0.0000 O   0  0  0  0  0  0  0  0  0  0  0  0
  1  2  1  0  0  0  0
  3  2  1  0  0  0  0
  4  3  2  0  0  0  0
  4  5  1  0  0  0  0
  6  5  1  0  0  0  0
  6  7  2  0  0  0  0
  8  6  1  0  0  0  0
  9  8  1  0  0  0  0
  9 10  1  0  0  0  0
 10 11  2  0  0  0  0
 11 12  1  0  0  0  0
 12 13  2  0  0  0  0
 13 14  1  0  0  0  0
  5 14  1  0  0  0  0
 14  9  2  0  0  0  0
 12 15  1  0  0  0  0
 15 16  1  0  0  0  0
 15 17  1  0  0  0  0
 15 18  1  0  0  0  0
 10 19  1  0  0  0  0
 19 20  1  0  0  0  0
 19 21  1  0  0  0  0
 19 22  1  0  0  0  0
 23  4  1  0  0  0  0
 24 23  2  0  0  0  0
 24 25  1  0  0  0  0
 26 24  1  0  0  0  0
  2 26  2  0  0  0  0
 26 27  1  0  0  0  0
M  END
> <RowID>
765

> <Original_SMILES>
CC1C=C(C=C(C)C=1O)C1C(=O)OC2C(=CC(=CC=21)C(C)(C)C)C(C)(C)C

> <Canonical_QSARr>
CC1C=C(C=C(C)C=1O)C1C(=O)OC2C(=CC(=CC=21)C(C)(C)C)C(C)(C)C

> <InChI_Code_QSARr>
InChI=1S/C24H30O3/c1-13-9-15(10-14(2)20(13)25)19-17-11-16(23(3,4)5)12-18(24(6,7)8)21(17)27-22(19)26/h9-12,19,25H,1-8H3

> <InChI Key_QSARr>
JAJNCYNAFJZBCW-UHFFFAOYSA-N

> <Salt_Solvent>


> <Salt_Solvent_ID>
0

> <Number of connected components>
1

$$$$
Molecule_766
  Mrv2316 01072400032D          

 26 30  0  0  0  0            999 V2000
    2.1434    2.0625    0.0000 O   0  0  0  0  0  0  0  0  0  0  0  0
    2.1434    1.2375    0.0000 C   0  0  0  0  0  0  0  0  0  0  0  0
    2.8579    0.8250    0.0000 C   0  0  0  0  0  0  0  0  0  0  0  0
    3.5724    1.2375    0.0000 C   0  0  0  0  0  0  0  0  0  0  0  0
    4.2868    0.8250    0.0000 C   0  0  0  0  0  0  0  0  0  0  0  0
    5.0013    1.2375    0.0000 N   0  0  0  0  0  0  0  0  0  0  0  0
    5.7158    0.8250    0.0000 C   0  0  0  0  0  0  0  0  0  0  0  0
    6.4302    1.2375    0.0000 C   0  0  0  0  0  0  0  0  0  0  0  0
    7.1447    0.8250    0.0000 C   0  0  0  0  0  0  0  0  0  0  0  0
    7.1447   -0.0000    0.0000 C   0  0  0  0  0  0  0  0  0  0  0  0
    7.8592   -0.4125    0.0000 Cl  0  0  0  0  0  0  0  0  0  0  0  0
    6.4302   -0.4125    0.0000 C   0  0  0  0  0  0  0  0  0  0  0  0
    6.4302   -1.2375    0.0000 Cl  0  0  0  0  0  0  0  0  0  0  0  0
    5.7158    0.0000    0.0000 C   0  0  0  0  0  0  0  0  0  0  0  0
    5.0013   -0.4125    0.0000 C   0  0  0  0  0  0  0  0  0  0  0  0
    5.0013   -1.2375    0.0000 O   0  0  0  0  0  0  0  0  0  0  0  0
    4.2868    0.0000    0.0000 C   0  0  0  0  0  0  0  0  0  0  0  0
    3.5724   -0.4125    0.0000 C   0  0  0  0  0  0  0  0  0  0  0  0
    2.8579    0.0000    0.0000 C   0  0  0  0  0  0  0  0  0  0  0  0
    2.1434   -0.4125    0.0000 N   0  0  0  0  0  0  0  0  0  0  0  0
    1.4289   -0.0000    0.0000 C   0  0  0  0  0  0  0  0  0  0  0  0
    0.7145   -0.4125    0.0000 C   0  0  0  0  0  0  0  0  0  0  0  0
   -0.0000   -0.0000    0.0000 C   0  0  0  0  0  0  0  0  0  0  0  0
   -0.0000    0.8250    0.0000 C   0  0  0  0  0  0  0  0  0  0  0  0
    0.7145    1.2375    0.0000 C   0  0  0  0  0  0  0  0  0  0  0  0
    1.4289    0.8250    0.0000 C   0  0  0  0  0  0  0  0  0  0  0  0
  1  2  2  0  0  0  0
  3  2  1  0  0  0  0
  3  4  2  0  0  0  0
  4  5  1  0  0  0  0
  6  5  1  0  0  0  0
  7  6  1  0  0  0  0
  7  8  1  0  0  0  0
  8  9  2  0  0  0  0
  9 10  1  0  0  0  0
 10 11  1  0  0  0  0
 10 12  2  0  0  0  0
 12 13  1  0  0  0  0
 12 14  1  0  0  0  0
 14  7  2  0  0  0  0
 15 14  1  0  0  0  0
 15 16  2  0  0  0  0
 17 15  1  0  0  0  0
  5 17  2  0  0  0  0
 17 18  1  0  0  0  0
 18 19  2  0  0  0  0
 19  3  1  0  0  0  0
 20 19  1  0  0  0  0
 21 20  1  0  0  0  0
 21 22  2  0  0  0  0
 22 23  1  0  0  0  0
 23 24  2  0  0  0  0
 24 25  1  0  0  0  0
 25 26  2  0  0  0  0
  2 26  1  0  0  0  0
 26 21  1  0  0  0  0
M  END
> <RowID>
766

> <Original_SMILES>
O=C1C2=CC3NC4C=CC(Cl)=C(Cl)C=4C(=O)C=3C=C2NC2=CC=CC=C12

> <Canonical_QSARr>
O=C1C2=CC3NC4C=CC(Cl)=C(Cl)C=4C(=O)C=3C=C2NC2=CC=CC=C12

> <InChI_Code_QSARr>
InChI=1S/C20H10Cl2N2O2/c21-12-5-6-14-17(18(12)22)20(26)11-8-15-10(7-16(11)24-14)19(25)9-3-1-2-4-13(9)23-15/h1-8H,(H,23,25)(H,24,26)

> <InChI Key_QSARr>
JMEWGCRUPXQFQL-UHFFFAOYSA-N

> <Salt_Solvent>


> <Salt_Solvent_ID>
0

> <Number of connected components>
1

$$$$
Molecule_767
  Mrv2316 01072400032D          

 18 19  0  0  0  0            999 V2000
    1.3047    0.5413    0.0000 N   0  0  0  0  0  0  0  0  0  0  0  0
    1.6403   -0.2124    0.0000 C   0  0  0  0  0  0  0  0  0  0  0  0
    1.9758   -0.9660    0.0000 C   0  0  0  0  0  0  0  0  0  0  0  0
    1.4909   -1.6335    0.0000 C   0  0  0  0  0  0  0  0  0  0  0  0
    1.8265   -2.3871    0.0000 C   0  0  0  0  0  0  0  0  0  0  0  0
    2.6469   -2.4734    0.0000 C   0  0  0  0  0  0  0  0  0  0  0  0
    3.1319   -1.8059    0.0000 C   0  0  0  0  0  0  0  0  0  0  0  0
    2.7963   -1.0523    0.0000 C   0  0  0  0  0  0  0  0  0  0  0  0
    3.2812   -0.3848    0.0000 N   0  0  0  0  0  0  0  0  0  0  0  0
    4.1017   -0.4711    0.0000 C   0  0  0  0  0  0  0  0  0  0  0  0
    4.4373   -1.2247    0.0000 O   0  0  0  0  0  0  0  0  0  0  0  0
    4.5866    0.1964    0.0000 C   0  0  0  0  0  0  0  0  0  0  0  0
    5.4116    0.1964    0.0000 S   0  0  0  0  0  0  0  0  0  0  0  0
    5.6666    0.9810    0.0000 N   0  0  0  0  0  0  0  0  0  0  0  0
    4.9991    1.4659    0.0000 C   0  0  0  0  0  0  0  0  0  0  0  0
    4.9991    2.2909    0.0000 Cl  0  0  0  0  0  0  0  0  0  0  0  0
    4.3317    0.9810    0.0000 C   0  0  0  0  0  0  0  0  0  0  0  0
    3.5471    1.2359    0.0000 Cl  0  0  0  0  0  0  0  0  0  0  0  0
  1  2  3  0  0  0  0
  2  3  1  0  0  0  0
  4  3  2  0  0  0  0
  5  4  1  0  0  0  0
  6  5  2  0  0  0  0
  7  6  1  0  0  0  0
  8  7  2  0  0  0  0
  3  8  1  0  0  0  0
  9  8  1  4  0  0  0
  9 10  2  0  0  0  0
 10 11  1  0  0  0  0
 10 12  1  0  0  0  0
 13 12  1  0  0  0  0
 14 13  1  0  0  0  0
 15 14  2  0  0  0  0
 15 16  1  0  0  0  0
 17 15  1  0  0  0  0
 12 17  2  0  0  0  0
 17 18  1  0  0  0  0
M  END
> <RowID>
767

> <Original_SMILES>
N#CC1=CC=CC=C1N=C(O)C1SN=C(Cl)C=1Cl

> <Canonical_QSARr>
N#CC1=CC=CC=C1N=C(O)C1SN=C(Cl)C=1Cl

> <InChI_Code_QSARr>
InChI=1S/C11H5Cl2N3OS/c12-8-9(18-16-10(8)13)11(17)15-7-4-2-1-3-6(7)5-14/h1-4H,(H,15,17)

> <InChI Key_QSARr>
WLPCAERCXQSYLQ-UHFFFAOYSA-N

> <Salt_Solvent>


> <Salt_Solvent_ID>
0

> <Number of connected components>
1

$$$$
Molecule_768
  Mrv2316 01072400032D          

 20 20  0  0  0  0            999 V2000
   -1.7666    0.7087    0.0000 O   0  0  0  0  0  0  0  0  0  0  0  0
   -2.1791    1.4231    0.0000 S   0  0  0  0  0  0  0  0  0  0  0  0
   -2.5916    2.1376    0.0000 O   0  0  0  0  0  0  0  0  0  0  0  0
   -2.8936    1.0106    0.0000 O   0  0  0  0  0  0  0  0  0  0  0  0
   -1.4647    1.8356    0.0000 C   0  0  0  0  0  0  0  0  0  0  0  0
   -0.7502    1.4231    0.0000 C   0  0  0  0  0  0  0  0  0  0  0  0
   -0.0357    1.8356    0.0000 C   0  0  0  0  0  0  0  0  0  0  0  0
    0.6787    1.4231    0.0000 O   0  0  0  0  0  0  0  0  0  0  0  0
    0.6787    0.5981    0.0000 C   0  0  0  0  0  0  0  0  0  0  0  0
   -0.0357    2.6606    0.0000 C   0  0  0  0  0  0  0  0  0  0  0  0
    0.6787    3.0731    0.0000 N   0  0  0  0  0  0  0  0  0  0  0  0
    1.3932    2.6606    0.0000 C   0  0  0  0  0  0  0  0  0  0  0  0
    2.1077    3.0731    0.0000 C   0  0  0  0  0  0  0  0  0  0  0  0
    2.8222    2.6606    0.0000 C   0  0  0  0  0  0  0  0  0  0  0  0
    2.8222    1.8356    0.0000 C   0  0  0  0  0  0  0  0  0  0  0  0
    3.5366    3.0731    0.0000 O   0  0  0  0  0  0  0  0  0  0  0  0
    1.3932    1.8356    0.0000 O   0  0  0  0  0  0  0  0  0  0  0  0
   -0.7502    3.0731    0.0000 C   0  0  0  0  0  0  0  0  0  0  0  0
   -1.4647    2.6606    0.0000 C   0  0  0  0  0  0  0  0  0  0  0  0
   -2.1791    3.0731    0.0000 C   0  0  0  0  0  0  0  0  0  0  0  0
  1  2  1  0  0  0  0
  2  3  2  0  0  0  0
  2  4  2  0  0  0  0
  2  5  1  0  0  0  0
  6  5  2  0  0  0  0
  7  6  1  0  0  0  0
  7  8  1  0  0  0  0
  8  9  1  0  0  0  0
 10  7  2  0  0  0  0
 10 11  1  0  0  0  0
 11 12  1  0  0  0  0
 12 13  1  0  0  0  0
 13 14  1  0  0  0  0
 14 15  1  0  0  0  0
 14 16  2  0  0  0  0
 12 17  2  0  0  0  0
 18 10  1  0  0  0  0
 19 18  2  0  0  0  0
  5 19  1  0  0  0  0
 19 20  1  0  0  0  0
M  END
> <RowID>
768

> <Original_SMILES>
[NH4+].CC(=O)CC(=O)NC1=CC(C)=C(C=C1OC)S([O-])(=O)=O

> <Canonical_QSARr>
CC(=O)CC(=O)NC1C=C(C)C(=CC=1OC)S(O)(=O)=O

> <InChI_Code_QSARr>
InChI=1S/C12H15NO6S/c1-7-4-9(13-12(15)5-8(2)14)10(19-3)6-11(7)20(16,17)18/h4,6H,5H2,1-3H3,(H,13,15)(H,16,17,18)

> <InChI Key_QSARr>
YTSYXEDYBAQECZ-UHFFFAOYSA-N

> <Salt_Solvent>
[NH4+]

> <Salt_Solvent_ID>
70

> <Number of connected components>
2

$$$$
Molecule_769
  Mrv2316 01072400032D          

 43 46  0  0  0  0            999 V2000
    1.8942    2.0337    0.0000 C   0  0  0  0  0  0  0  0  0  0  0  0
    1.1797    2.4462    0.0000 O   0  0  0  0  0  0  0  0  0  0  0  0
    0.4652    2.0337    0.0000 C   0  0  0  0  0  0  0  0  0  0  0  0
   -0.2492    2.4462    0.0000 C   0  0  0  0  0  0  0  0  0  0  0  0
   -0.9637    2.0337    0.0000 C   0  0  0  0  0  0  0  0  0  0  0  0
   -1.6782    2.4462    0.0000 O   0  0  0  0  0  0  0  0  0  0  0  0
   -2.3926    2.0337    0.0000 C   0  0  0  0  0  0  0  0  0  0  0  0
   -0.9637    1.2087    0.0000 C   0  0  0  0  0  0  0  0  0  0  0  0
   -1.6782    0.7962    0.0000 Cl  0  0  0  0  0  0  0  0  0  0  0  0
   -0.2492    0.7962    0.0000 C   0  0  0  0  0  0  0  0  0  0  0  0
    0.4652    1.2087    0.0000 C   0  0  0  0  0  0  0  0  0  0  0  0
    1.1797    0.7962    0.0000 N   0  0  0  0  0  0  0  0  0  0  0  0
    1.1797   -0.0288    0.0000 C   0  0  0  0  0  0  0  0  0  0  0  0
    0.4652   -0.4413    0.0000 O   0  0  0  0  0  0  0  0  0  0  0  0
    1.8942   -0.4413    0.0000 C   0  0  0  0  0  0  0  0  0  0  0  0
    2.6086   -0.0288    0.0000 C   0  0  0  0  0  0  0  0  0  0  0  0
    3.3231   -0.4413    0.0000 C   0  0  0  0  0  0  0  0  0  0  0  0
    4.0376   -0.0288    0.0000 C   0  0  0  0  0  0  0  0  0  0  0  0
    4.7521   -0.4413    0.0000 C   0  0  0  0  0  0  0  0  0  0  0  0
    4.7521   -1.2663    0.0000 C   0  0  0  0  0  0  0  0  0  0  0  0
    4.0376   -1.6788    0.0000 C   0  0  0  0  0  0  0  0  0  0  0  0
    3.3231   -1.2663    0.0000 C   0  0  0  0  0  0  0  0  0  0  0  0
    2.6086   -1.6788    0.0000 C   0  0  0  0  0  0  0  0  0  0  0  0
    2.6086   -2.5038    0.0000 N   0  0  0  0  0  0  0  0  0  0  0  0
    1.8942   -2.9163    0.0000 N   0  0  0  0  0  0  0  0  0  0  0  0
    1.8942   -3.7413    0.0000 C   0  0  0  0  0  0  0  0  0  0  0  0
    1.1797   -4.1538    0.0000 C   0  0  0  0  0  0  0  0  0  0  0  0
    1.1797   -4.9788    0.0000 C   0  0  0  0  0  0  0  0  0  0  0  0
    0.4652   -5.3913    0.0000 S   0  0  0  0  0  0  0  0  0  0  0  0
    0.0527   -4.6768    0.0000 O   0  0  0  0  0  0  0  0  0  0  0  0
    0.8777   -6.1057    0.0000 O   0  0  0  0  0  0  0  0  0  0  0  0
   -0.2492   -5.8038    0.0000 N   0  0  0  0  0  0  0  0  0  0  0  0
   -0.2492   -6.6288    0.0000 C   0  0  0  0  0  0  0  0  0  0  0  0
    0.4652   -7.0413    0.0000 C   0  0  0  0  0  0  0  0  0  0  0  0
   -0.9637   -5.3913    0.0000 C   0  0  0  0  0  0  0  0  0  0  0  0
   -1.6782   -5.8038    0.0000 C   0  0  0  0  0  0  0  0  0  0  0  0
    1.8942   -5.3913    0.0000 C   0  0  0  0  0  0  0  0  0  0  0  0
    2.6086   -4.9788    0.0000 C   0  0  0  0  0  0  0  0  0  0  0  0
    2.6086   -4.1538    0.0000 C   0  0  0  0  0  0  0  0  0  0  0  0
    3.3231   -3.7413    0.0000 O   0  0  0  0  0  0  0  0  0  0  0  0
    3.3231   -2.9163    0.0000 C   0  0  0  0  0  0  0  0  0  0  0  0
    1.8942   -1.2663    0.0000 C   0  0  0  0  0  0  0  0  0  0  0  0
    1.1797   -1.6788    0.0000 O   0  0  0  0  0  0  0  0  0  0  0  0
  1  2  1  0  0  0  0
  2  3  1  0  0  0  0
  4  3  1  0  0  0  0
  5  4  2  0  0  0  0
  5  6  1  0  0  0  0
  6  7  1  0  0  0  0
  8  5  1  0  0  0  0
  8  9  1  0  0  0  0
 10  8  2  0  0  0  0
 11 10  1  0  0  0  0
  3 11  2  0  0  0  0
 11 12  1  0  0  0  0
 12 13  1  0  0  0  0
 13 14  2  0  0  0  0
 13 15  1  0  0  0  0
 16 15  2  0  0  0  0
 17 16  1  0  0  0  0
 17 18  2  0  0  0  0
 18 19  1  0  0  0  0
 19 20  2  0  0  0  0
 20 21  1  0  0  0  0
 21 22  2  0  0  0  0
 22 17  1  0  0  0  0
 23 22  1  0  0  0  0
 24 23  1  4  0  0  0
 24 25  2  0  0  0  0
 25 26  1  0  0  0  0
 27 26  2  0  0  0  0
 28 27  1  0  0  0  0
 28 29  1  0  0  0  0
 29 30  2  0  0  0  0
 29 31  2  0  0  0  0
 29 32  1  0  0  0  0
 32 33  1  0  0  0  0
 33 34  1  0  0  0  0
 32 35  1  0  0  0  0
 35 36  1  0  0  0  0
 37 28  2  0  0  0  0
 38 37  1  0  0  0  0
 39 38  2  0  0  0  0
 26 39  1  0  0  0  0
 39 40  1  0  0  0  0
 40 41  1  0  0  0  0
 42 23  2  0  0  0  0
 15 42  1  0  0  0  0
 42 43  1  0  0  0  0
M  END
> <RowID>
769

> <Original_SMILES>
COC1C=C(OC)C(Cl)=CC=1NC(=O)C1=CC2=CC=CC=C2C(N=NC2=CC(=CC=C2OC)S(=O)(=O)N(CC)CC)=C1O

> <Canonical_QSARr>
COC1C=C(OC)C(Cl)=CC=1NC(=O)C1=CC2=CC=CC=C2C(N=NC2=CC(=CC=C2OC)S(=O)(=O)N(CC)CC)=C1O

> <InChI_Code_QSARr>
InChI=1S/C30H31ClN4O7S/c1-6-35(7-2)43(38,39)19-12-13-25(40-3)24(15-19)33-34-28-20-11-9-8-10-18(20)14-21(29(28)36)30(37)32-23-16-22(31)26(41-4)17-27(23)42-5/h8-17,36H,6-7H2,1-5H3,(H,32,37)

> <InChI Key_QSARr>
LMULDSDQRQVZMW-UHFFFAOYSA-N

> <Salt_Solvent>


> <Salt_Solvent_ID>
0

> <Number of connected components>
1

$$$$
Molecule_770
  Mrv2316 01072400032D          

 56 62  0  0  0  0            999 V2000
    0.3062    3.0054    0.0000 C   0  0  0  0  0  0  0  0  0  0  0  0
   -0.4083    2.5929    0.0000 C   0  0  0  0  0  0  0  0  0  0  0  0
   -1.1227    3.0054    0.0000 C   0  0  0  0  0  0  0  0  0  0  0  0
   -1.8372    2.5929    0.0000 C   0  0  0  0  0  0  0  0  0  0  0  0
   -2.5517    3.0054    0.0000 N   0  0  0  0  0  0  0  0  0  0  0  0
   -3.2661    2.5929    0.0000 C   0  0  0  0  0  0  0  0  0  0  0  0
   -3.2661    1.7679    0.0000 O   0  0  0  0  0  0  0  0  0  0  0  0
   -3.9806    3.0054    0.0000 C   0  0  0  0  0  0  0  0  0  0  0  0
   -4.6951    2.5929    0.0000 C   0  0  0  0  0  0  0  0  0  0  0  0
   -5.4096    3.0054    0.0000 C   0  0  0  0  0  0  0  0  0  0  0  0
   -6.1240    2.5929    0.0000 C   0  0  0  0  0  0  0  0  0  0  0  0
   -6.8385    3.0054    0.0000 C   0  0  0  0  0  0  0  0  0  0  0  0
   -6.8385    3.8304    0.0000 C   0  0  0  0  0  0  0  0  0  0  0  0
   -6.1240    4.2429    0.0000 C   0  0  0  0  0  0  0  0  0  0  0  0
   -5.4096    3.8304    0.0000 C   0  0  0  0  0  0  0  0  0  0  0  0
   -4.6951    4.2429    0.0000 C   0  0  0  0  0  0  0  0  0  0  0  0
   -4.6951    5.0679    0.0000 N   0  0  0  0  0  0  0  0  0  0  0  0
   -3.9806    5.4804    0.0000 N   0  0  0  0  0  0  0  0  0  0  0  0
   -3.9806    6.3054    0.0000 C   0  0  0  0  0  0  0  0  0  0  0  0
   -3.2661    6.7179    0.0000 C   0  0  0  0  0  0  0  0  0  0  0  0
   -3.2661    7.5429    0.0000 C   0  0  0  0  0  0  0  0  0  0  0  0
   -2.5517    7.9554    0.0000 Cl  0  0  0  0  0  0  0  0  0  0  0  0
   -3.9806    7.9554    0.0000 C   0  0  0  0  0  0  0  0  0  0  0  0
   -4.6951    7.5429    0.0000 C   0  0  0  0  0  0  0  0  0  0  0  0
   -4.6951    6.7179    0.0000 C   0  0  0  0  0  0  0  0  0  0  0  0
   -5.4096    6.3054    0.0000 C   0  0  0  0  0  0  0  0  0  0  0  0
   -3.9806    3.8304    0.0000 C   0  0  0  0  0  0  0  0  0  0  0  0
   -3.2661    4.2429    0.0000 O   0  0  0  0  0  0  0  0  0  0  0  0
   -1.8372    1.7679    0.0000 C   0  0  0  0  0  0  0  0  0  0  0  0
   -2.5517    1.3554    0.0000 C   0  0  0  0  0  0  0  0  0  0  0  0
   -1.1227    1.3554    0.0000 C   0  0  0  0  0  0  0  0  0  0  0  0
   -0.4083    1.7679    0.0000 C   0  0  0  0  0  0  0  0  0  0  0  0
    0.3062    1.3554    0.0000 N   0  0  0  0  0  0  0  0  0  0  0  0
    0.3062    0.5304    0.0000 C   0  0  0  0  0  0  0  0  0  0  0  0
   -0.4083    0.1179    0.0000 O   0  0  0  0  0  0  0  0  0  0  0  0
    1.0207    0.1179    0.0000 C   0  0  0  0  0  0  0  0  0  0  0  0
    1.7351    0.5304    0.0000 C   0  0  0  0  0  0  0  0  0  0  0  0
    2.4496    0.1179    0.0000 C   0  0  0  0  0  0  0  0  0  0  0  0
    3.1641    0.5304    0.0000 C   0  0  0  0  0  0  0  0  0  0  0  0
    3.8786    0.1179    0.0000 C   0  0  0  0  0  0  0  0  0  0  0  0
    3.8786   -0.7071    0.0000 C   0  0  0  0  0  0  0  0  0  0  0  0
    3.1641   -1.1196    0.0000 C   0  0  0  0  0  0  0  0  0  0  0  0
    2.4496   -0.7071    0.0000 C   0  0  0  0  0  0  0  0  0  0  0  0
    1.7351   -1.1196    0.0000 C   0  0  0  0  0  0  0  0  0  0  0  0
    1.7351   -1.9446    0.0000 N   0  0  0  0  0  0  0  0  0  0  0  0
    1.0207   -2.3571    0.0000 N   0  0  0  0  0  0  0  0  0  0  0  0
    1.0207   -3.1821    0.0000 C   0  0  0  0  0  0  0  0  0  0  0  0
    0.3062   -3.5946    0.0000 C   0  0  0  0  0  0  0  0  0  0  0  0
    0.3062   -4.4196    0.0000 C   0  0  0  0  0  0  0  0  0  0  0  0
   -0.4083   -4.8321    0.0000 Cl  0  0  0  0  0  0  0  0  0  0  0  0
    1.0207   -4.8321    0.0000 C   0  0  0  0  0  0  0  0  0  0  0  0
    1.7351   -4.4196    0.0000 C   0  0  0  0  0  0  0  0  0  0  0  0
    1.7351   -3.5946    0.0000 C   0  0  0  0  0  0  0  0  0  0  0  0
    2.4496   -3.1821    0.0000 C   0  0  0  0  0  0  0  0  0  0  0  0
    1.0207   -0.7071    0.0000 C   0  0  0  0  0  0  0  0  0  0  0  0
    0.3062   -1.1196    0.0000 O   0  0  0  0  0  0  0  0  0  0  0  0
  1  2  1  0  0  0  0
  3  2  1  0  0  0  0
  4  3  2  0  0  0  0
  4  5  1  0  0  0  0
  5  6  1  0  0  0  0
  6  7  2  0  0  0  0
  6  8  1  0  0  0  0
  9  8  2  0  0  0  0
 10  9  1  0  0  0  0
 10 11  1  0  0  0  0
 11 12  2  0  0  0  0
 12 13  1  0  0  0  0
 13 14  2  0  0  0  0
 14 15  1  0  0  0  0
 15 10  2  0  0  0  0
 16 15  1  0  0  0  0
 17 16  1  4  0  0  0
 17 18  2  0  0  0  0
 18 19  1  0  0  0  0
 20 19  2  0  0  0  0
 21 20  1  0  0  0  0
 21 22  1  0  0  0  0
 23 21  2  0  0  0  0
 24 23  1  0  0  0  0
 25 24  2  0  0  0  0
 19 25  1  0  0  0  0
 25 26  1  0  0  0  0
 27 16  2  0  0  0  0
  8 27  1  0  0  0  0
 27 28  1  0  0  0  0
 29  4  1  0  0  0  0
 29 30  1  0  0  0  0
 31 29  2  0  0  0  0
 32 31  1  0  0  0  0
  2 32  2  0  0  0  0
 32 33  1  0  0  0  0
 33 34  1  0  0  0  0
 34 35  2  0  0  0  0
 34 36  1  0  0  0  0
 37 36  2  0  0  0  0
 38 37  1  0  0  0  0
 38 39  1  0  0  0  0
 39 40  2  0  0  0  0
 40 41  1  0  0  0  0
 41 42  2  0  0  0  0
 42 43  1  0  0  0  0
 43 38  2  0  0  0  0
 44 43  1  0  0  0  0
 45 44  1  4  0  0  0
 45 46  2  0  0  0  0
 46 47  1  0  0  0  0
 48 47  2  0  0  0  0
 49 48  1  0  0  0  0
 49 50  1  0  0  0  0
 51 49  2  0  0  0  0
 52 51  1  0  0  0  0
 53 52  2  0  0  0  0
 47 53  1  0  0  0  0
 53 54  1  0  0  0  0
 55 44  2  0  0  0  0
 36 55  1  0  0  0  0
 55 56  1  0  0  0  0
M  END
> <RowID>
770

> <Original_SMILES>
CC1C=C(NC(=O)C2=CC3C=CC=CC=3C(N=NC3=CC(Cl)=CC=C3C)=C2O)C(C)=CC=1NC(=O)C1=CC2C=CC=CC=2C(N=NC2=CC(Cl)=CC=C2C)=C1O

> <Canonical_QSARr>
CC1C=C(NC(=O)C2=CC3C=CC=CC=3C(N=NC3=CC(Cl)=CC=C3C)=C2O)C(C)=CC=1NC(=O)C1=CC2C=CC=CC=2C(N=NC2=CC(Cl)=CC=C2C)=C1O

> <InChI_Code_QSARr>
InChI=1S/C44H34Cl2N6O4/c1-23-13-15-29(45)21-37(23)49-51-39-31-11-7-5-9-27(31)19-33(41(39)53)43(55)47-35-17-26(4)36(18-25(35)3)48-44(56)34-20-28-10-6-8-12-32(28)40(42(34)54)52-50-38-22-30(46)16-14-24(38)2/h5-22,53-54H,1-4H3,(H,47,55)(H,48,56)

> <InChI Key_QSARr>
RUASBGDJNNJFOJ-UHFFFAOYSA-N

> <Salt_Solvent>


> <Salt_Solvent_ID>
0

> <Number of connected components>
1

$$$$
Molecule_772
  Mrv2316 01072400032D          

 16 16  0  0  0  0            999 V2000
   -2.4113    1.3406    0.0000 C   0  0  0  0  0  0  0  0  0  0  0  0
   -1.6969    0.9281    0.0000 C   0  0  0  0  0  0  0  0  0  0  0  0
   -1.6969    0.1031    0.0000 C   0  0  0  0  0  0  0  0  0  0  0  0
   -0.9824    1.3406    0.0000 S   0  0  0  0  0  0  0  0  0  0  0  0
   -0.2679    0.9281    0.0000 C   0  0  0  0  0  0  0  0  0  0  0  0
   -0.2679    0.1031    0.0000 N   0  0  0  0  0  0  0  0  0  0  0  0
    0.4465   -0.3094    0.0000 C   0  0  0  0  0  0  0  0  0  0  0  0
    1.1610    0.1031    0.0000 C   0  0  0  0  0  0  0  0  0  0  0  0
    1.1610    0.9281    0.0000 C   0  0  0  0  0  0  0  0  0  0  0  0
    0.4465    1.3406    0.0000 C   0  0  0  0  0  0  0  0  0  0  0  0
    0.4465    2.1656    0.0000 C   0  0  0  0  0  0  0  0  0  0  0  0
    1.1610    2.5781    0.0000 C   0  0  0  0  0  0  0  0  0  0  0  0
    1.1610    3.4031    0.0000 C   0  0  0  0  0  0  0  0  0  0  0  0
    1.1610    4.2281    0.0000 F   0  0  0  0  0  0  0  0  0  0  0  0
    1.9860    3.4031    0.0000 F   0  0  0  0  0  0  0  0  0  0  0  0
    0.3360    3.4031    0.0000 F   0  0  0  0  0  0  0  0  0  0  0  0
  1  2  1  0  0  0  0
  2  3  1  0  0  0  0
  2  4  1  0  0  0  0
  4  5  1  0  0  0  0
  6  5  1  0  0  0  0
  7  6  2  0  0  0  0
  8  7  1  0  0  0  0
  9  8  2  0  0  0  0
 10  9  1  0  0  0  0
  5 10  2  0  0  0  0
 10 11  1  0  0  0  0
 11 12  1  0  0  0  0
 12 13  1  0  0  0  0
 13 14  1  0  0  0  0
 13 15  1  0  0  0  0
 13 16  1  0  0  0  0
M  END
> <RowID>
772

> <Original_SMILES>
CC(C)SC1N=CC=CC=1CCC(F)(F)F

> <Canonical_QSARr>
CC(C)SC1N=CC=CC=1CCC(F)(F)F

> <InChI_Code_QSARr>
InChI=1S/C11H14F3NS/c1-8(2)16-10-9(4-3-7-15-10)5-6-11(12,13)14/h3-4,7-8H,5-6H2,1-2H3

> <InChI Key_QSARr>
YADVWHBCXMSTPE-UHFFFAOYSA-N

> <Salt_Solvent>


> <Salt_Solvent_ID>
0

> <Number of connected components>
1

$$$$
Molecule_773
  Mrv2316 01072400032D          

 27 26  0  0  0  0            999 V2000
    3.2408   -3.0789    0.0000 O   0  0  0  0  0  0  0  0  0  0  0  0
    2.5263   -2.6664    0.0000 C   0  0  0  0  0  0  0  0  0  0  0  0
    2.5263   -1.8414    0.0000 O   0  0  0  0  0  0  0  0  0  0  0  0
    1.8118   -3.0789    0.0000 C   0  0  0  0  0  0  0  0  0  0  0  0
    1.0974   -2.6664    0.0000 N   0  0  0  0  0  0  0  0  0  0  0  0
    0.3829   -3.0789    0.0000 C   0  0  0  0  0  0  0  0  0  0  0  0
   -0.3316   -2.6664    0.0000 C   0  0  0  0  0  0  0  0  0  0  0  0
   -1.0460   -3.0789    0.0000 N   0  0  0  0  0  0  0  0  0  0  0  0
   -1.0460   -3.9039    0.0000 C   0  0  0  0  0  0  0  0  0  0  0  0
   -0.3316   -4.3164    0.0000 C   0  0  0  0  0  0  0  0  0  0  0  0
    0.3829   -3.9039    0.0000 O   0  0  0  0  0  0  0  0  0  0  0  0
   -0.3316   -5.1414    0.0000 O   0  0  0  0  0  0  0  0  0  0  0  0
   -1.7605   -2.6664    0.0000 C   0  0  0  0  0  0  0  0  0  0  0  0
   -2.4750   -3.0789    0.0000 C   0  0  0  0  0  0  0  0  0  0  0  0
   -3.1895   -2.6664    0.0000 N   0  0  0  0  0  0  0  0  0  0  0  0
   -3.9039   -3.0789    0.0000 C   0  0  0  0  0  0  0  0  0  0  0  0
   -4.6184   -2.6664    0.0000 C   0  0  0  0  0  0  0  0  0  0  0  0
   -5.3329   -3.0789    0.0000 O   0  0  0  0  0  0  0  0  0  0  0  0
   -4.6184   -1.8414    0.0000 O   0  0  0  0  0  0  0  0  0  0  0  0
   -3.1895   -1.8414    0.0000 C   0  0  0  0  0  0  0  0  0  0  0  0
   -2.4750   -1.4289    0.0000 C   0  0  0  0  0  0  0  0  0  0  0  0
   -2.4750   -0.6039    0.0000 O   0  0  0  0  0  0  0  0  0  0  0  0
   -1.7605   -1.8414    0.0000 O   0  0  0  0  0  0  0  0  0  0  0  0
    1.0974   -1.8414    0.0000 C   0  0  0  0  0  0  0  0  0  0  0  0
    0.3829   -1.4289    0.0000 C   0  0  0  0  0  0  0  0  0  0  0  0
   -0.3316   -1.8414    0.0000 O   0  0  0  0  0  0  0  0  0  0  0  0
    0.3829   -0.6039    0.0000 O   0  0  0  0  0  0  0  0  0  0  0  0
  1  2  1  0  0  0  0
  2  3  2  0  0  0  0
  2  4  1  0  0  0  0
  4  5  1  0  0  0  0
  5  6  1  0  0  0  0
  6  7  1  0  0  0  0
  7  8  1  0  0  0  0
  8  9  1  0  0  0  0
  9 10  1  0  0  0  0
 10 11  1  0  0  0  0
 10 12  2  0  0  0  0
  8 13  1  0  0  0  0
 13 14  1  0  0  0  0
 14 15  1  0  0  0  0
 15 16  1  0  0  0  0
 16 17  1  0  0  0  0
 17 18  1  0  0  0  0
 17 19  2  0  0  0  0
 15 20  1  0  0  0  0
 20 21  1  0  0  0  0
 21 22  1  0  0  0  0
 21 23  2  0  0  0  0
  5 24  1  0  0  0  0
 24 25  1  0  0  0  0
 25 26  1  0  0  0  0
 25 27  2  0  0  0  0
M  END
> <RowID>
773

> <Original_SMILES>
[Na+].[Fe+3].[O-]C(=O)CN(CCN(CC([O-])=O)CC([O-])=O)CCN(CC([O-])=O)CC([O-])=O

> <Canonical_QSARr>
OC(=O)CN(CCN(CC(O)=O)CC(O)=O)CCN(CC(O)=O)CC(O)=O

> <InChI_Code_QSARr>
InChI=1S/C14H23N3O10/c18-10(19)5-15(1-3-16(6-11(20)21)7-12(22)23)2-4-17(8-13(24)25)9-14(26)27/h1-9H2,(H,18,19)(H,20,21)(H,22,23)(H,24,25)(H,26,27)

> <InChI Key_QSARr>
QPCDCPDFJACHGM-UHFFFAOYSA-N

> <Salt_Solvent>
[Na+].[Fe+3]

> <Salt_Solvent_ID>
185

> <Number of connected components>
3

$$$$
Molecule_774
  Mrv2316 01072400032D          

 16 16  0  0  0  0            999 V2000
   -0.3572   -1.7531    0.0000 C   0  0  0  0  0  0  0  0  0  0  0  0
    0.3572   -1.3406    0.0000 C   0  0  0  0  0  0  0  0  0  0  0  0
    0.7697   -2.0551    0.0000 C   0  0  0  0  0  0  0  0  0  0  0  0
   -0.0553   -0.6262    0.0000 O   0  0  0  0  0  0  0  0  0  0  0  0
    1.0717   -0.9281    0.0000 C   0  0  0  0  0  0  0  0  0  0  0  0
    1.7862   -1.3406    0.0000 O   0  0  0  0  0  0  0  0  0  0  0  0
    1.0717   -0.1031    0.0000 C   0  0  0  0  0  0  0  0  0  0  0  0
    1.7862    0.3094    0.0000 C   0  0  0  0  0  0  0  0  0  0  0  0
    1.7862    1.1344    0.0000 C   0  0  0  0  0  0  0  0  0  0  0  0
    1.0717    1.5469    0.0000 C   0  0  0  0  0  0  0  0  0  0  0  0
    1.0717    2.3719    0.0000 O   0  0  0  0  0  0  0  0  0  0  0  0
    0.3572    2.7844    0.0000 C   0  0  0  0  0  0  0  0  0  0  0  0
    0.3572    3.6094    0.0000 C   0  0  0  0  0  0  0  0  0  0  0  0
   -0.3572    4.0219    0.0000 O   0  0  0  0  0  0  0  0  0  0  0  0
    0.3572    1.1344    0.0000 C   0  0  0  0  0  0  0  0  0  0  0  0
    0.3572    0.3094    0.0000 C   0  0  0  0  0  0  0  0  0  0  0  0
  1  2  1  0  0  0  0
  2  3  1  0  0  0  0
  2  4  1  0  0  0  0
  2  5  1  0  0  0  0
  5  6  2  0  0  0  0
  5  7  1  0  0  0  0
  8  7  1  0  0  0  0
  9  8  2  0  0  0  0
 10  9  1  0  0  0  0
 10 11  1  0  0  0  0
 11 12  1  0  0  0  0
 12 13  1  0  0  0  0
 13 14  1  0  0  0  0
 15 10  2  0  0  0  0
 16 15  1  0  0  0  0
  7 16  2  0  0  0  0
M  END
> <RowID>
774

> <Original_SMILES>
CC(C)(O)C(=O)C1C=CC(=CC=1)OCCO

> <Canonical_QSARr>
CC(C)(O)C(=O)C1C=CC(=CC=1)OCCO

> <InChI_Code_QSARr>
InChI=1S/C12H16O4/c1-12(2,15)11(14)9-3-5-10(6-4-9)16-8-7-13/h3-6,13,15H,7-8H2,1-2H3

> <InChI Key_QSARr>
GJKGAPPUXSSCFI-UHFFFAOYSA-N

> <Salt_Solvent>


> <Salt_Solvent_ID>
0

> <Number of connected components>
1

$$$$
Molecule_775
  Mrv2316 01072400032D          

 43 47  0  0  0  0            999 V2000
   -5.6327    1.0265    0.0000 C   0  0  0  0  0  0  0  0  0  0  0  0
   -4.9182    1.4390    0.0000 C   0  0  0  0  0  0  0  0  0  0  0  0
   -4.2038    1.0265    0.0000 O   0  0  0  0  0  0  0  0  0  0  0  0
   -3.4893    1.4390    0.0000 C   0  0  0  0  0  0  0  0  0  0  0  0
   -2.7748    1.0265    0.0000 O   0  0  0  0  0  0  0  0  0  0  0  0
   -2.0603    1.4390    0.0000 C   0  0  0  0  0  0  0  0  0  0  0  0
   -1.3459    1.0265    0.0000 C   0  0  0  0  0  0  0  0  0  0  0  0
   -1.3459    0.2015    0.0000 O   0  0  0  0  0  0  0  0  0  0  0  0
   -0.6314   -0.2110    0.0000 C   0  0  0  0  0  0  0  0  0  0  0  0
   -0.6314   -1.0360    0.0000 O   0  0  0  0  0  0  0  0  0  0  0  0
    0.0831   -1.4485    0.0000 C   0  0  0  0  0  0  0  0  0  0  0  0
    0.7975   -1.0360    0.0000 C   0  0  0  0  0  0  0  0  0  0  0  0
    1.5120   -1.4485    0.0000 C   0  0  0  0  0  0  0  0  0  0  0  0
    2.2265   -1.0360    0.0000 O   0  0  0  0  0  0  0  0  0  0  0  0
    2.9410   -1.4485    0.0000 C   0  0  0  0  0  0  0  0  0  0  0  0
    2.9410   -2.2735    0.0000 C   0  0  0  0  0  0  0  0  0  0  0  0
    2.2265   -2.6860    0.0000 C   0  0  0  0  0  0  0  0  0  0  0  0
    2.2265   -3.5110    0.0000 O   0  0  0  0  0  0  0  0  0  0  0  0
    1.5120   -2.2735    0.0000 C   0  0  0  0  0  0  0  0  0  0  0  0
    0.7975   -2.6860    0.0000 C   0  0  0  0  0  0  0  0  0  0  0  0
    0.7975   -3.5110    0.0000 O   0  0  0  0  0  0  0  0  0  0  0  0
    0.0831   -2.2735    0.0000 C   0  0  0  0  0  0  0  0  0  0  0  0
    3.6554   -1.0360    0.0000 C   0  0  0  0  0  0  0  0  0  0  0  0
    4.3699   -1.4485    0.0000 C   0  0  0  0  0  0  0  0  0  0  0  0
    5.0844   -1.0360    0.0000 C   0  0  0  0  0  0  0  0  0  0  0  0
    5.7988   -1.4485    0.0000 O   0  0  0  0  0  0  0  0  0  0  0  0
    5.0844   -0.2110    0.0000 C   0  0  0  0  0  0  0  0  0  0  0  0
    5.7988    0.2015    0.0000 O   0  0  0  0  0  0  0  0  0  0  0  0
    5.7988    1.0265    0.0000 C   0  0  0  0  0  0  0  0  0  0  0  0
    4.3699    0.2015    0.0000 C   0  0  0  0  0  0  0  0  0  0  0  0
    3.6554   -0.2110    0.0000 C   0  0  0  0  0  0  0  0  0  0  0  0
    0.0831    0.2015    0.0000 C   0  0  0  0  0  0  0  0  0  0  0  0
    0.7975   -0.2110    0.0000 O   0  0  0  0  0  0  0  0  0  0  0  0
    0.0831    1.0265    0.0000 C   0  0  0  0  0  0  0  0  0  0  0  0
    0.7975    1.4390    0.0000 O   0  0  0  0  0  0  0  0  0  0  0  0
   -0.6314    1.4390    0.0000 C   0  0  0  0  0  0  0  0  0  0  0  0
   -0.6314    2.2640    0.0000 O   0  0  0  0  0  0  0  0  0  0  0  0
   -3.4893    2.2640    0.0000 C   0  0  0  0  0  0  0  0  0  0  0  0
   -2.7748    2.6765    0.0000 O   0  0  0  0  0  0  0  0  0  0  0  0
   -4.2038    2.6765    0.0000 C   0  0  0  0  0  0  0  0  0  0  0  0
   -4.2038    3.5015    0.0000 O   0  0  0  0  0  0  0  0  0  0  0  0
   -4.9182    2.2640    0.0000 C   0  0  0  0  0  0  0  0  0  0  0  0
   -5.6327    2.6765    0.0000 O   0  0  0  0  0  0  0  0  0  0  0  0
  1  2  1  0  0  0  0
  3  2  1  0  0  0  0
  4  3  1  0  0  0  0
  4  5  1  0  0  0  0
  5  6  1  0  0  0  0
  6  7  1  0  0  0  0
  8  7  1  0  0  0  0
  9  8  1  0  0  0  0
  9 10  1  0  0  0  0
 10 11  1  0  0  0  0
 12 11  2  0  0  0  0
 13 12  1  0  0  0  0
 13 14  1  0  0  0  0
 14 15  1  0  0  0  0
 15 16  1  0  0  0  0
 16 17  1  0  0  0  0
 17 18  2  0  0  0  0
 17 19  1  0  0  0  0
 19 13  2  0  0  0  0
 20 19  1  0  0  0  0
 20 21  1  0  0  0  0
 22 20  2  0  0  0  0
 11 22  1  0  0  0  0
 15 23  1  0  0  0  0
 24 23  2  0  0  0  0
 25 24  1  0  0  0  0
 25 26  1  0  0  0  0
 27 25  2  0  0  0  0
 27 28  1  0  0  0  0
 28 29  1  0  0  0  0
 30 27  1  0  0  0  0
 31 30  2  0  0  0  0
 23 31  1  0  0  0  0
 32  9  1  0  0  0  0
 32 33  1  0  0  0  0
 34 32  1  0  0  0  0
 34 35  1  0  0  0  0
 36 34  1  0  0  0  0
  7 36  1  0  0  0  0
 36 37  1  0  0  0  0
 38  4  1  0  0  0  0
 38 39  1  0  0  0  0
 40 38  1  0  0  0  0
 40 41  1  0  0  0  0
 42 40  1  0  0  0  0
  2 42  1  0  0  0  0
 42 43  1  0  0  0  0
M  END
> <RowID>
775

> <Original_SMILES>
CC1OC(OCC2OC(OC3=CC4OC(CC(=O)C=4C(O)=C3)C3=CC(O)=C(C=C3)OC)C(O)C(O)C2O)C(O)C(O)C1O

> <Canonical_QSARr>
CC1OC(OCC2OC(OC3=CC4OC(CC(=O)C=4C(O)=C3)C3=CC(O)=C(C=C3)OC)C(O)C(O)C2O)C(O)C(O)C1O

> <InChI_Code_QSARr>
InChI=1S/C28H34O15/c1-10-21(32)23(34)25(36)27(40-10)39-9-19-22(33)24(35)26(37)28(43-19)41-12-6-14(30)20-15(31)8-17(42-18(20)7-12)11-3-4-16(38-2)13(29)5-11/h3-7,10,17,19,21-30,32-37H,8-9H2,1-2H3

> <InChI Key_QSARr>
QUQPHWDTPGMPEX-UHFFFAOYSA-N

> <Salt_Solvent>


> <Salt_Solvent_ID>
0

> <Number of connected components>
1

$$$$
Molecule_776
  Mrv2316 01072400032D          

 45 47  0  0  0  0            999 V2000
   -4.4932    2.8325    0.0000 C   0  0  0  0  0  0  0  0  0  0  0  0
   -4.4932    2.0075    0.0000 C   0  0  0  0  0  0  0  0  0  0  0  0
   -5.2077    1.5950    0.0000 C   0  0  0  0  0  0  0  0  0  0  0  0
   -5.2077    0.7700    0.0000 C   0  0  0  0  0  0  0  0  0  0  0  0
   -5.9222    0.3575    0.0000 O   0  0  0  0  0  0  0  0  0  0  0  0
   -5.9222   -0.4675    0.0000 C   0  0  0  0  0  0  0  0  0  0  0  0
   -5.2077   -0.8800    0.0000 O   0  0  0  0  0  0  0  0  0  0  0  0
   -6.6367   -0.8800    0.0000 C   0  0  0  0  0  0  0  0  0  0  0  0
   -7.3511   -0.4675    0.0000 C   0  0  0  0  0  0  0  0  0  0  0  0
   -8.0656   -0.8800    0.0000 C   0  0  0  0  0  0  0  0  0  0  0  0
   -8.0656   -1.7050    0.0000 C   0  0  0  0  0  0  0  0  0  0  0  0
   -8.7801   -2.1175    0.0000 O   0  0  0  0  0  0  0  0  0  0  0  0
   -8.7801   -2.9425    0.0000 C   0  0  0  0  0  0  0  0  0  0  0  0
   -9.4945   -3.3550    0.0000 C   0  0  0  0  0  0  0  0  0  0  0  0
   -9.4945   -4.1800    0.0000 C   0  0  0  0  0  0  0  0  0  0  0  0
  -10.2090   -4.5925    0.0000 C   0  0  0  0  0  0  0  0  0  0  0  0
  -10.2090   -5.4175    0.0000 O   0  0  0  0  0  0  0  0  0  0  0  0
  -10.9235   -5.8300    0.0000 C   0  0  0  0  0  0  0  0  0  0  0  0
  -11.6380   -5.4175    0.0000 O   0  0  0  0  0  0  0  0  0  0  0  0
  -10.9235   -6.6550    0.0000 C   0  0  0  0  0  0  0  0  0  0  0  0
  -11.6380   -7.0675    0.0000 C   0  0  0  0  0  0  0  0  0  0  0  0
   -7.3511   -2.1175    0.0000 C   0  0  0  0  0  0  0  0  0  0  0  0
   -6.6367   -1.7050    0.0000 C   0  0  0  0  0  0  0  0  0  0  0  0
   -4.4932    0.3575    0.0000 C   0  0  0  0  0  0  0  0  0  0  0  0
   -3.7788    0.7700    0.0000 C   0  0  0  0  0  0  0  0  0  0  0  0
   -3.7788    1.5950    0.0000 C   0  0  0  0  0  0  0  0  0  0  0  0
   -3.0643    2.0075    0.0000 O   0  0  0  0  0  0  0  0  0  0  0  0
   -2.3498    1.5950    0.0000 C   0  0  0  0  0  0  0  0  0  0  0  0
   -2.3498    0.7700    0.0000 O   0  0  0  0  0  0  0  0  0  0  0  0
   -1.6354    2.0075    0.0000 C   0  0  0  0  0  0  0  0  0  0  0  0
   -0.9209    1.5950    0.0000 C   0  0  0  0  0  0  0  0  0  0  0  0
   -0.2064    2.0075    0.0000 C   0  0  0  0  0  0  0  0  0  0  0  0
   -0.2064    2.8325    0.0000 C   0  0  0  0  0  0  0  0  0  0  0  0
    0.5081    3.2450    0.0000 O   0  0  0  0  0  0  0  0  0  0  0  0
    1.2225    2.8325    0.0000 C   0  0  0  0  0  0  0  0  0  0  0  0
    1.9370    3.2450    0.0000 C   0  0  0  0  0  0  0  0  0  0  0  0
    2.6515    2.8325    0.0000 C   0  0  0  0  0  0  0  0  0  0  0  0
    3.3659    3.2450    0.0000 C   0  0  0  0  0  0  0  0  0  0  0  0
    4.0804    2.8325    0.0000 O   0  0  0  0  0  0  0  0  0  0  0  0
    4.7949    3.2450    0.0000 C   0  0  0  0  0  0  0  0  0  0  0  0
    4.7949    4.0700    0.0000 O   0  0  0  0  0  0  0  0  0  0  0  0
    5.5094    2.8325    0.0000 C   0  0  0  0  0  0  0  0  0  0  0  0
    6.2238    3.2450    0.0000 C   0  0  0  0  0  0  0  0  0  0  0  0
   -0.9209    3.2450    0.0000 C   0  0  0  0  0  0  0  0  0  0  0  0
   -1.6354    2.8325    0.0000 C   0  0  0  0  0  0  0  0  0  0  0  0
  1  2  1  0  0  0  0
  3  2  1  0  0  0  0
  4  3  2  0  0  0  0
  4  5  1  0  0  0  0
  5  6  1  0  0  0  0
  6  7  2  0  0  0  0
  6  8  1  0  0  0  0
  9  8  1  0  0  0  0
 10  9  2  0  0  0  0
 11 10  1  0  0  0  0
 11 12  1  0  0  0  0
 12 13  1  0  0  0  0
 13 14  1  0  0  0  0
 14 15  1  0  0  0  0
 15 16  1  0  0  0  0
 16 17  1  0  0  0  0
 17 18  1  0  0  0  0
 18 19  2  0  0  0  0
 18 20  1  0  0  0  0
 20 21  2  0  0  0  0
 22 11  2  0  0  0  0
 23 22  1  0  0  0  0
  8 23  2  0  0  0  0
 24  4  1  0  0  0  0
 25 24  2  0  0  0  0
 26 25  1  0  0  0  0
  2 26  2  0  0  0  0
 26 27  1  0  0  0  0
 27 28  1  0  0  0  0
 28 29  2  0  0  0  0
 28 30  1  0  0  0  0
 31 30  1  0  0  0  0
 32 31  2  0  0  0  0
 33 32  1  0  0  0  0
 33 34  1  0  0  0  0
 34 35  1  0  0  0  0
 35 36  1  0  0  0  0
 36 37  1  0  0  0  0
 37 38  1  0  0  0  0
 38 39  1  0  0  0  0
 39 40  1  0  0  0  0
 40 41  2  0  0  0  0
 40 42  1  0  0  0  0
 42 43  2  0  0  0  0
 44 33  2  0  0  0  0
 45 44  1  0  0  0  0
 30 45  2  0  0  0  0
M  END
> <RowID>
776

> <Original_SMILES>
CC1C=C(C=CC=1OC(=O)C1C=CC(=CC=1)OCCCCOC(=O)C=C)OC(=O)C1C=CC(=CC=1)OCCCCOC(=O)C=C

> <Canonical_QSARr>
CC1C=C(C=CC=1OC(=O)C1C=CC(=CC=1)OCCCCOC(=O)C=C)OC(=O)C1C=CC(=CC=1)OCCCCOC(=O)C=C

> <InChI_Code_QSARr>
InChI=1S/C35H36O10/c1-4-32(36)42-22-8-6-20-40-28-14-10-26(11-15-28)34(38)44-30-18-19-31(25(3)24-30)45-35(39)27-12-16-29(17-13-27)41-21-7-9-23-43-33(37)5-2/h4-5,10-19,24H,1-2,6-9,20-23H2,3H3

> <InChI Key_QSARr>
NLGINBDFXRCWQW-UHFFFAOYSA-N

> <Salt_Solvent>


> <Salt_Solvent_ID>
0

> <Number of connected components>
1

$$$$
Molecule_777
  Mrv2316 01072400032D          

 17 18  0  0  0  0            999 V2000
   -0.7145   -0.4125    0.0000 C   0  0  0  0  0  0  0  0  0  0  0  0
   -0.0000   -0.0000    0.0000 O   0  0  0  0  0  0  0  0  0  0  0  0
    0.7145   -0.4125    0.0000 C   0  0  0  0  0  0  0  0  0  0  0  0
    1.4289    0.0000    0.0000 C   0  0  0  0  0  0  0  0  0  0  0  0
    2.1434   -0.4125    0.0000 C   0  0  0  0  0  0  0  0  0  0  0  0
    2.8579    0.0000    0.0000 N   0  0  0  0  0  0  0  0  0  0  0  0
    3.5724   -0.4125    0.0000 C   0  0  0  0  0  0  0  0  0  0  0  0
    4.2868   -0.0000    0.0000 O   0  0  0  0  0  0  0  0  0  0  0  0
    3.5724   -1.2375    0.0000 C   0  0  0  0  0  0  0  0  0  0  0  0
    4.2868   -1.6500    0.0000 O   0  0  0  0  0  0  0  0  0  0  0  0
    2.8579   -1.6500    0.0000 N   0  0  0  0  0  0  0  0  0  0  0  0
    2.1434   -1.2375    0.0000 C   0  0  0  0  0  0  0  0  0  0  0  0
    1.4289   -1.6500    0.0000 C   0  0  0  0  0  0  0  0  0  0  0  0
    0.7145   -1.2375    0.0000 C   0  0  0  0  0  0  0  0  0  0  0  0
   -0.0000   -1.6500    0.0000 N   0  3  0  0  0  0  0  0  0  0  0  0
   -0.7145   -1.2375    0.0000 O   0  5  0  0  0  0  0  0  0  0  0  0
   -0.0000   -2.4750    0.0000 O   0  0  0  0  0  0  0  0  0  0  0  0
  1  2  1  0  0  0  0
  2  3  1  0  0  0  0
  4  3  2  0  0  0  0
  5  4  1  0  0  0  0
  5  6  1  0  0  0  0
  6  7  1  0  0  0  0
  7  8  2  0  0  0  0
  7  9  1  0  0  0  0
  9 10  2  0  0  0  0
  9 11  1  0  0  0  0
 11 12  1  0  0  0  0
 12  5  2  0  0  0  0
 13 12  1  0  0  0  0
 14 13  2  0  0  0  0
  3 14  1  0  0  0  0
 14 15  1  0  0  0  0
 15 16  1  0  0  0  0
 15 17  2  0  0  0  0
M  CHG  2  15   1  16  -1
M  END
> <RowID>
777

> <Original_SMILES>
COC1=CC2NC(=O)C(=O)NC=2C=C1[N+]([O-])=O

> <Canonical_QSARr>
COC1=CC2NC(=O)C(=O)NC=2C=C1[N+]([O-])=O

> <InChI_Code_QSARr>
InChI=1S/C9H7N3O5/c1-17-7-3-5-4(2-6(7)12(15)16)10-8(13)9(14)11-5/h2-3H,1H3,(H,10,13)(H,11,14)

> <InChI Key_QSARr>
ALRTZORJZUBQGM-UHFFFAOYSA-N

> <Salt_Solvent>


> <Salt_Solvent_ID>
0

> <Number of connected components>
1

$$$$
Molecule_778
  Mrv2316 01072400032D          

 15 14  0  0  0  0            999 V2000
    8.5224    0.7954    0.0000 C   0  0  0  0  0  0  0  0  0  0  0  0
    8.5224    1.6204    0.0000 C   0  0  0  0  0  0  0  0  0  0  0  0
    7.8079    2.0329    0.0000 C   0  0  0  0  0  0  0  0  0  0  0  0
    7.8079    2.8579    0.0000 C   0  0  0  0  0  0  0  0  0  0  0  0
    7.0934    3.2704    0.0000 C   0  0  0  0  0  0  0  0  0  0  0  0
    6.3789    2.8579    0.0000 O   0  0  0  0  0  0  0  0  0  0  0  0
    5.6645    3.2704    0.0000 C   0  0  0  0  0  0  0  0  0  0  0  0
    5.6645    4.0954    0.0000 O   0  0  0  0  0  0  0  0  0  0  0  0
    4.9500    2.8579    0.0000 C   0  0  0  0  0  0  0  0  0  0  0  0
    4.2355    3.2704    0.0000 C   0  0  0  0  0  0  0  0  0  0  0  0
    8.5224    3.2704    0.0000 C   0  0  0  0  0  0  0  0  0  0  0  0
    9.2368    2.8579    0.0000 C   0  0  0  0  0  0  0  0  0  0  0  0
    9.9513    3.2704    0.0000 C   0  0  0  0  0  0  0  0  0  0  0  0
   10.6658    2.8579    0.0000 C   0  0  0  0  0  0  0  0  0  0  0  0
   11.3802    3.2704    0.0000 C   0  0  0  0  0  0  0  0  0  0  0  0
  1  2  1  0  0  0  0
  2  3  1  0  0  0  0
  3  4  1  0  0  0  0
  4  5  1  0  0  0  0
  5  6  1  0  0  0  0
  6  7  1  0  0  0  0
  7  8  2  0  0  0  0
  7  9  1  0  0  0  0
  9 10  2  0  0  0  0
  4 11  1  0  0  0  0
 11 12  1  0  0  0  0
 12 13  1  0  0  0  0
 13 14  1  0  0  0  0
 14 15  1  0  0  0  0
M  END
> <RowID>
778

> <Original_SMILES>
CCCC(COC(=O)C=C)CCCCC

> <Canonical_QSARr>
CCCC(COC(=O)C=C)CCCCC

> <InChI_Code_QSARr>
InChI=1S/C13H24O2/c1-4-7-8-10-12(9-5-2)11-15-13(14)6-3/h6,12H,3-5,7-11H2,1-2H3

> <InChI Key_QSARr>
RXBOCDZLKBPILN-UHFFFAOYSA-N

> <Salt_Solvent>


> <Salt_Solvent_ID>
0

> <Number of connected components>
1

$$$$
Molecule_779
  Mrv2316 01072400032D          

  8  7  0  0  0  0            999 V2000
    2.0625    0.1105    0.0000 C   0  0  0  0  0  0  0  0  0  0  0  0
    2.0625   -0.7145    0.0000 C   0  0  0  0  0  0  0  0  0  0  0  0
    2.0625   -1.5395    0.0000 C   0  0  0  0  0  0  0  0  0  0  0  0
    2.8875   -0.7145    0.0000 C   0  0  0  0  0  0  0  0  0  0  0  0
    3.3000   -1.4290    0.0000 C   0  0  0  0  0  0  0  0  0  0  0  0
    1.2375   -0.7145    0.0000 O   0  0  0  0  0  0  0  0  0  0  0  0
    0.8250   -0.0000    0.0000 C   0  0  0  0  0  0  0  0  0  0  0  0
    0.0000   -0.0000    0.0000 C   0  0  0  0  0  0  0  0  0  0  0  0
  1  2  1  0  0  0  0
  2  3  1  0  0  0  0
  2  4  1  0  0  0  0
  4  5  1  0  0  0  0
  2  6  1  0  0  0  0
  6  7  1  0  0  0  0
  7  8  1  0  0  0  0
M  END
> <RowID>
779

> <Original_SMILES>
CC(C)(CC)OCC

> <Canonical_QSARr>
CC(C)(CC)OCC

> <InChI_Code_QSARr>
InChI=1S/C7H16O/c1-5-7(3,4)8-6-2/h5-6H2,1-4H3

> <InChI Key_QSARr>
KFRVYYGHSPLXSZ-UHFFFAOYSA-N

> <Salt_Solvent>


> <Salt_Solvent_ID>
0

> <Number of connected components>
1

$$$$
Molecule_780
  Mrv2316 01072400032D          

  8  7  0  0  0  0            999 V2000
    1.7605    1.8414    0.0000 C   0  0  0  0  0  0  0  0  0  0  0  0
    2.4750    1.4289    0.0000 C   0  0  0  0  0  0  0  0  0  0  0  0
    3.1895    1.8414    0.0000 C   0  0  0  0  0  0  0  0  0  0  0  0
    3.9039    1.4289    0.0000 C   0  0  0  0  0  0  0  0  0  0  0  0
    4.6184    1.8414    0.0000 O   0  0  0  0  0  0  0  0  0  0  0  0
    5.3329    1.4289    0.0000 C   0  0  0  0  0  0  0  0  0  0  0  0
    6.0474    1.8414    0.0000 C   0  0  0  0  0  0  0  0  0  0  0  0
    5.3329    0.6039    0.0000 O   0  0  0  0  0  0  0  0  0  0  0  0
  1  2  1  0  0  0  0
  2  3  1  0  0  0  0
  3  4  1  0  0  0  0
  4  5  1  0  0  0  0
  5  6  1  0  0  0  0
  6  7  1  0  0  0  0
  6  8  2  0  0  0  0
M  END
> <RowID>
780

> <Original_SMILES>
CCCCOC(C)=O

> <Canonical_QSARr>
CCCCOC(C)=O

> <InChI_Code_QSARr>
InChI=1S/C6H12O2/c1-3-4-5-8-6(2)7/h3-5H2,1-2H3

> <InChI Key_QSARr>
DKPFZGUDAPQIHT-UHFFFAOYSA-N

> <Salt_Solvent>


> <Salt_Solvent_ID>
0

> <Number of connected components>
1

$$$$
Molecule_782
  Mrv2316 01072400032D          

 39 42  0  0  0  0            999 V2000
    3.3802  -11.4136    0.0000 C   0  0  0  0  0  0  0  0  0  0  0  0
    2.6657  -11.0011    0.0000 C   0  0  0  0  0  0  0  0  0  0  0  0
    1.9513  -11.4136    0.0000 C   0  0  0  0  0  0  0  0  0  0  0  0
    2.6657  -10.1761    0.0000 C   0  0  0  0  0  0  0  0  0  0  0  0
    1.9513   -9.7636    0.0000 C   0  0  0  0  0  0  0  0  0  0  0  0
    1.9513   -8.9386    0.0000 O   0  0  0  0  0  0  0  0  0  0  0  0
    1.2368  -10.1761    0.0000 O   0  0  0  0  0  0  0  0  0  0  0  0
    0.5223   -9.7636    0.0000 C   0  0  0  0  0  0  0  0  0  0  0  0
   -0.1921  -10.1761    0.0000 C   0  0  0  0  0  0  0  0  0  0  0  0
   -0.9066   -9.7636    0.0000 C   0  0  0  0  0  0  0  0  0  0  0  0
   -1.6211  -10.1761    0.0000 C   0  0  0  0  0  0  0  0  0  0  0  0
   -1.6211  -11.0011    0.0000 C   0  0  0  0  0  0  0  0  0  0  0  0
   -0.9066  -11.4136    0.0000 C   0  0  0  0  0  0  0  0  0  0  0  0
   -0.1921  -11.0011    0.0000 C   0  0  0  0  0  0  0  0  0  0  0  0
    3.3802   -9.7636    0.0000 N   0  0  0  0  0  0  0  0  0  0  0  0
    3.3802   -8.9386    0.0000 C   0  0  0  0  0  0  0  0  0  0  0  0
    4.0947   -8.5261    0.0000 C   0  0  0  0  0  0  0  0  0  0  0  0
    4.8092   -8.9386    0.0000 C   0  0  0  0  0  0  0  0  0  0  0  0
    5.5236   -8.5261    0.0000 C   0  0  0  0  0  0  0  0  0  0  0  0
    5.5236   -7.7011    0.0000 C   0  0  0  0  0  0  0  0  0  0  0  0
    6.2381   -7.2886    0.0000 C   0  0  0  0  0  0  0  0  0  0  0  0
    6.9526   -7.7011    0.0000 C   0  0  0  0  0  0  0  0  0  0  0  0
    7.6670   -7.2886    0.0000 C   0  0  0  0  0  0  0  0  0  0  0  0
    7.6670   -6.4636    0.0000 C   0  0  0  0  0  0  0  0  0  0  0  0
    6.9526   -6.0511    0.0000 C   0  0  0  0  0  0  0  0  0  0  0  0
    6.2381   -6.4636    0.0000 C   0  0  0  0  0  0  0  0  0  0  0  0
    5.5236   -6.0511    0.0000 C   0  0  0  0  0  0  0  0  0  0  0  0
    5.4374   -5.2306    0.0000 N   0  0  0  0  0  0  0  0  0  0  0  0
    4.6304   -5.0591    0.0000 N   0  0  0  0  0  0  0  0  0  0  0  0
    4.2179   -5.7735    0.0000 N   0  0  0  0  0  0  0  0  0  0  0  0
    4.7699   -6.3866    0.0000 N   0  0  0  0  0  0  0  0  0  0  0  0
    4.8092   -7.2886    0.0000 C   0  0  0  0  0  0  0  0  0  0  0  0
    4.0947   -7.7011    0.0000 C   0  0  0  0  0  0  0  0  0  0  0  0
    4.0947  -10.1761    0.0000 C   0  0  0  0  0  0  0  0  0  0  0  0
    4.0947  -11.0011    0.0000 O   0  0  0  0  0  0  0  0  0  0  0  0
    4.8092   -9.7636    0.0000 C   0  0  0  0  0  0  0  0  0  0  0  0
    5.5236  -10.1761    0.0000 C   0  0  0  0  0  0  0  0  0  0  0  0
    6.2381   -9.7636    0.0000 C   0  0  0  0  0  0  0  0  0  0  0  0
    6.2381   -8.9386    0.0000 C   0  0  0  0  0  0  0  0  0  0  0  0
  1  2  1  0  0  0  0
  2  3  1  0  0  0  0
  2  4  1  0  0  0  0
  4  5  1  0  0  0  0
  5  6  2  0  0  0  0
  5  7  1  0  0  0  0
  7  8  1  0  0  0  0
  8  9  1  0  0  0  0
 10  9  1  0  0  0  0
 11 10  2  0  0  0  0
 12 11  1  0  0  0  0
 13 12  2  0  0  0  0
 14 13  1  0  0  0  0
  9 14  2  0  0  0  0
  4 15  1  0  0  0  0
 15 16  1  0  0  0  0
 16 17  1  0  0  0  0
 18 17  1  0  0  0  0
 19 18  2  0  0  0  0
 20 19  1  0  0  0  0
 20 21  1  0  0  0  0
 22 21  2  0  0  0  0
 23 22  1  0  0  0  0
 24 23  2  0  0  0  0
 25 24  1  0  0  0  0
 26 25  2  0  0  0  0
 21 26  1  0  0  0  0
 26 27  1  0  0  0  0
 28 27  2  0  0  0  0
 29 28  1  0  0  0  0
 30 29  1  0  0  0  0
 31 30  2  0  0  0  0
 27 31  1  0  0  0  0
 32 20  2  0  0  0  0
 33 32  1  0  0  0  0
 17 33  2  0  0  0  0
 15 34  1  0  0  0  0
 34 35  2  0  0  0  0
 34 36  1  0  0  0  0
 36 37  1  0  0  0  0
 37 38  1  0  0  0  0
 38 39  1  0  0  0  0
M  END
> <RowID>
782

> <Original_SMILES>
CC(C)C(C(=O)OCC1C=CC=CC=1)N(CC1C=CC(=CC=1)C1=CC=CC=C1C1=NNN=N1)C(=O)CCCC

> <Canonical_QSARr>
CC(C)C(C(=O)OCC1C=CC=CC=1)N(CC1C=CC(=CC=1)C1=CC=CC=C1C1=NNN=N1)C(=O)CCCC

> <InChI_Code_QSARr>
InChI=1S/C31H35N5O3/c1-4-5-15-28(37)36(29(22(2)3)31(38)39-21-24-11-7-6-8-12-24)20-23-16-18-25(19-17-23)26-13-9-10-14-27(26)30-32-34-35-33-30/h6-14,16-19,22,29H,4-5,15,20-21H2,1-3H3,(H,32,33,34,35)

> <InChI Key_QSARr>
VXKKFWDUSKMRNO-UHFFFAOYSA-N

> <Salt_Solvent>


> <Salt_Solvent_ID>
0

> <Number of connected components>
1

$$$$
Molecule_783
  Mrv2316 01072400032D          

 33 37  0  0  0  0            999 V2000
    1.5234   -0.9777    0.0000 C   0  0  0  0  0  0  0  0  0  0  0  0
    1.8833   -0.2353    0.0000 C   0  0  0  0  0  0  0  0  0  0  0  0
    2.4151   -0.8660    0.0000 C   0  0  0  0  0  0  0  0  0  0  0  0
    3.2272   -0.7208    0.0000 C   0  0  0  0  0  0  0  0  0  0  0  0
    4.0394   -0.5756    0.0000 O   0  0  0  0  0  0  0  0  0  0  0  0
    3.5075    0.0551    0.0000 C   0  0  0  0  0  0  0  0  0  0  0  0
    2.9757    0.6858    0.0000 C   0  0  0  0  0  0  0  0  0  0  0  0
    3.2560    1.4618    0.0000 C   0  0  0  0  0  0  0  0  0  0  0  0
    4.0681    1.6070    0.0000 C   0  0  0  0  0  0  0  0  0  0  0  0
    4.3484    2.3829    0.0000 F   0  0  0  0  0  0  0  0  0  0  0  0
    4.6000    0.9763    0.0000 C   0  0  0  0  0  0  0  0  0  0  0  0
    5.4121    1.1215    0.0000 C   0  0  0  0  0  0  0  0  0  0  0  0
    5.9439    0.4908    0.0000 C   0  0  0  0  0  0  0  0  0  0  0  0
    6.7560    0.6360    0.0000 O   0  0  0  0  0  0  0  0  0  0  0  0
    5.6636   -0.2851    0.0000 C   0  0  0  0  0  0  0  0  0  0  0  0
    4.8515   -0.4304    0.0000 C   0  0  0  0  0  0  0  0  0  0  0  0
    4.3197    0.2004    0.0000 C   0  0  0  0  0  0  0  0  0  0  0  0
    4.5490   -0.5921    0.0000 C   0  0  0  0  0  0  0  0  0  0  0  0
    2.1636    0.5406    0.0000 C   0  0  0  0  0  0  0  0  0  0  0  0
    1.5123    1.0470    0.0000 C   0  0  0  0  0  0  0  0  0  0  0  0
    0.8294    0.5840    0.0000 C   0  0  0  0  0  0  0  0  0  0  0  0
    1.0587   -0.2085    0.0000 C   0  0  0  0  0  0  0  0  0  0  0  0
    0.9373   -1.0245    0.0000 O   0  0  0  0  0  0  0  0  0  0  0  0
    1.5833   -1.5377    0.0000 C   0  0  0  0  0  0  0  0  0  0  0  0
    2.3507   -1.2348    0.0000 C   0  0  0  0  0  0  0  0  0  0  0  0
    1.4619   -2.3537    0.0000 O   0  0  0  0  0  0  0  0  0  0  0  0
    0.2979   -0.5274    0.0000 C   0  0  0  0  0  0  0  0  0  0  0  0
    0.1936   -1.3457    0.0000 O   0  0  0  0  0  0  0  0  0  0  0  0
   -0.3587   -0.0279    0.0000 C   0  0  0  0  0  0  0  0  0  0  0  0
   -1.1196   -0.3467    0.0000 O   0  0  0  0  0  0  0  0  0  0  0  0
   -1.7762    0.1528    0.0000 C   0  0  0  0  0  0  0  0  0  0  0  0
   -2.5371   -0.1661    0.0000 C   0  0  0  0  0  0  0  0  0  0  0  0
   -1.6719    0.9712    0.0000 O   0  0  0  0  0  0  0  0  0  0  0  0
  1  2  1  0  0  0  0
  3  2  1  0  0  0  0
  4  3  1  0  0  0  0
  4  5  1  0  0  0  0
  5  6  1  0  0  0  0
  6  4  1  0  0  0  0
  6  7  1  0  0  0  0
  7  8  1  0  0  0  0
  8  9  1  0  0  0  0
  9 10  1  0  0  0  0
  9 11  1  0  0  0  0
 12 11  2  0  0  0  0
 13 12  1  0  0  0  0
 13 14  2  0  0  0  0
 15 13  1  0  0  0  0
 16 15  2  0  0  0  0
 17 16  1  0  0  0  0
 11 17  1  0  0  0  0
 17  6  1  0  0  0  0
 17 18  1  0  0  0  0
 19  7  1  0  0  0  0
 19  2  1  0  0  0  0
 20 19  1  0  0  0  0
 21 20  1  0  0  0  0
 22 21  1  0  0  0  0
  2 22  1  0  0  0  0
 22 23  1  0  0  0  0
 23 24  1  0  0  0  0
 24 25  1  0  0  0  0
 24 26  2  0  0  0  0
 22 27  1  0  0  0  0
 27 28  2  0  0  0  0
 27 29  1  0  0  0  0
 29 30  1  0  0  0  0
 30 31  1  0  0  0  0
 31 32  1  0  0  0  0
 31 33  2  0  0  0  0
M  END
> <RowID>
783

> <Original_SMILES>
CC12CC3OC43C(CC(F)C3=CC(=O)C=CC43C)C1CCC2(OC(C)=O)C(=O)COC(C)=O

> <Canonical_QSARr>
CC12CC3OC43C(CC(F)C3=CC(=O)C=CC43C)C1CCC2(OC(C)=O)C(=O)COC(C)=O

> <InChI_Code_QSARr>
InChI=1S/C25H29FO7/c1-13(27)31-12-20(30)24(32-14(2)28)8-6-16-17-10-19(26)18-9-15(29)5-7-22(18,3)25(17)21(33-25)11-23(16,24)4/h5,7,9,16-17,19,21H,6,8,10-12H2,1-4H3

> <InChI Key_QSARr>
LNYMKQGFLVFMOI-UHFFFAOYSA-N

> <Salt_Solvent>


> <Salt_Solvent_ID>
0

> <Number of connected components>
1

$$$$
Molecule_784
  Mrv2316 01072400032D          

 16 15  0  0  0  0            999 V2000
    4.5375    0.7145    0.0000 O   0  0  0  0  0  0  0  0  0  0  0  0
    3.7125    0.7145    0.0000 S   0  0  0  0  0  0  0  0  0  0  0  0
    3.7125    1.5395    0.0000 O   0  0  0  0  0  0  0  0  0  0  0  0
    3.7125   -0.1105    0.0000 F   0  0  0  0  0  0  0  0  0  0  0  0
    2.8875    0.7145    0.0000 C   0  0  0  0  0  0  0  0  0  0  0  0
    2.8875    1.5395    0.0000 F   0  0  0  0  0  0  0  0  0  0  0  0
    2.8875   -0.1105    0.0000 F   0  0  0  0  0  0  0  0  0  0  0  0
    2.0625    0.7145    0.0000 C   0  0  0  0  0  0  0  0  0  0  0  0
    2.0625    1.5395    0.0000 F   0  0  0  0  0  0  0  0  0  0  0  0
    2.0625   -0.1105    0.0000 F   0  0  0  0  0  0  0  0  0  0  0  0
    1.2375    0.7145    0.0000 O   0  0  0  0  0  0  0  0  0  0  0  0
    0.8250    0.0000    0.0000 C   0  0  0  0  0  0  0  0  0  0  0  0
    1.2375   -0.7145    0.0000 F   0  0  0  0  0  0  0  0  0  0  0  0
    0.0000    0.0000    0.0000 C   0  0  0  0  0  0  0  0  0  0  0  0
   -0.4125   -0.7145    0.0000 F   0  0  0  0  0  0  0  0  0  0  0  0
   -0.4125    0.7145    0.0000 F   0  0  0  0  0  0  0  0  0  0  0  0
  1  2  2  0  0  0  0
  2  3  2  0  0  0  0
  2  4  1  0  0  0  0
  2  5  1  0  0  0  0
  5  6  1  0  0  0  0
  5  7  1  0  0  0  0
  5  8  1  0  0  0  0
  8  9  1  0  0  0  0
  8 10  1  0  0  0  0
  8 11  1  0  0  0  0
 11 12  1  0  0  0  0
 12 13  1  0  0  0  0
 12 14  2  0  0  0  0
 14 15  1  0  0  0  0
 14 16  1  0  0  0  0
M  END
> <RowID>
784

> <Original_SMILES>
O=S(=O)(F)C(F)(F)C(F)(F)OC(F)=C(F)F

> <Canonical_QSARr>
O=S(=O)(F)C(F)(F)C(F)(F)OC(F)=C(F)F

> <InChI_Code_QSARr>
InChI=1S/C4F8O3S/c5-1(6)2(7)15-3(8,9)4(10,11)16(12,13)14

> <InChI Key_QSARr>
VQUGQIYAVYQSAB-UHFFFAOYSA-N

> <Salt_Solvent>


> <Salt_Solvent_ID>
0

> <Number of connected components>
1

$$$$
Molecule_785
  Mrv2316 01072400032D          

 15 15  0  0  0  0            999 V2000
    2.1910   -0.4950    0.0000 C   0  0  0  0  0  0  0  0  0  0  0  0
    2.1910    0.3300    0.0000 N   0  0  0  0  0  0  0  0  0  0  0  0
    2.9055    0.7425    0.0000 C   0  0  0  0  0  0  0  0  0  0  0  0
    1.4766    0.7425    0.0000 S   0  0  0  0  0  0  0  0  0  0  0  0
    1.8891    1.4570    0.0000 O   0  0  0  0  0  0  0  0  0  0  0  0
    1.0641    0.0280    0.0000 O   0  0  0  0  0  0  0  0  0  0  0  0
    0.7621    1.1550    0.0000 C   0  0  0  0  0  0  0  0  0  0  0  0
    0.7621    1.9800    0.0000 C   0  0  0  0  0  0  0  0  0  0  0  0
    0.0476    2.3925    0.0000 C   0  0  0  0  0  0  0  0  0  0  0  0
    0.0476    3.2175    0.0000 Cl  0  0  0  0  0  0  0  0  0  0  0  0
   -0.6668    1.9800    0.0000 C   0  0  0  0  0  0  0  0  0  0  0  0
   -1.3813    2.3925    0.0000 N   0  0  0  0  0  0  0  0  0  0  0  0
   -0.6668    1.1550    0.0000 C   0  0  0  0  0  0  0  0  0  0  0  0
    0.0476    0.7425    0.0000 C   0  0  0  0  0  0  0  0  0  0  0  0
    0.0476   -0.0825    0.0000 Cl  0  0  0  0  0  0  0  0  0  0  0  0
  1  2  1  0  0  0  0
  2  3  1  0  0  0  0
  2  4  1  0  0  0  0
  4  5  2  0  0  0  0
  4  6  2  0  0  0  0
  4  7  1  0  0  0  0
  8  7  1  0  0  0  0
  9  8  2  0  0  0  0
  9 10  1  0  0  0  0
 11  9  1  0  0  0  0
 11 12  1  0  0  0  0
 13 11  2  0  0  0  0
 14 13  1  0  0  0  0
  7 14  2  0  0  0  0
 14 15  1  0  0  0  0
M  END
> <RowID>
785

> <Original_SMILES>
CN(C)S(=O)(=O)C1C=C(Cl)C(N)=CC=1Cl

> <Canonical_QSARr>
CN(C)S(=O)(=O)C1C=C(Cl)C(N)=CC=1Cl

> <InChI_Code_QSARr>
InChI=1S/C8H10Cl2N2O2S/c1-12(2)15(13,14)8-4-5(9)7(11)3-6(8)10/h3-4H,11H2,1-2H3

> <InChI Key_QSARr>
RVDTXDMZBHZDCD-UHFFFAOYSA-N

> <Salt_Solvent>


> <Salt_Solvent_ID>
0

> <Number of connected components>
1

$$$$
Molecule_786
  Mrv2316 01072400032D          

  6  5  0  0  0  0            999 V2000
    1.2375    2.1434    0.0000 N   0  0  0  0  0  0  0  0  0  0  0  0
    0.8250    1.4289    0.0000 C   0  0  0  0  0  0  0  0  0  0  0  0
    1.2375    0.7145    0.0000 C   0  0  0  0  0  0  0  0  0  0  0  0
    0.8250   -0.0000    0.0000 C   0  0  0  0  0  0  0  0  0  0  0  0
    1.2375   -0.7145    0.0000 O   0  0  0  0  0  0  0  0  0  0  0  0
    0.0000   -0.0000    0.0000 O   0  0  0  0  0  0  0  0  0  0  0  0
  1  2  1  0  0  0  0
  2  3  1  0  0  0  0
  3  4  1  0  0  0  0
  4  5  1  0  0  0  0
  4  6  2  0  0  0  0
M  END
> <RowID>
786

> <Original_SMILES>
NCCC(O)=O

> <Canonical_QSARr>
NCCC(O)=O

> <InChI_Code_QSARr>
InChI=1S/C3H7NO2/c4-2-1-3(5)6/h1-2,4H2,(H,5,6)

> <InChI Key_QSARr>
UCMIRNVEIXFBKS-UHFFFAOYSA-N

> <Salt_Solvent>


> <Salt_Solvent_ID>
0

> <Number of connected components>
1

$$$$
Molecule_787
  Mrv2316 01072400032D          

 27 28  0  0  0  0            999 V2000
    0.6039   -0.8555    0.0000 C   0  0  0  0  0  0  0  0  0  0  0  0
    1.4289   -0.8555    0.0000 C   0  0  0  0  0  0  0  0  0  0  0  0
    2.2539   -0.8555    0.0000 O   0  0  0  0  0  0  0  0  0  0  0  0
    1.4289   -0.0305    0.0000 C   0  0  0  0  0  0  0  0  0  0  0  0
    2.1434    0.3820    0.0000 S   0  0  0  0  0  0  0  0  0  0  0  0
    2.1434    1.2070    0.0000 C   0  0  0  0  0  0  0  0  0  0  0  0
    2.8579    1.6195    0.0000 C   0  0  0  0  0  0  0  0  0  0  0  0
    2.8579    2.4445    0.0000 C   0  0  0  0  0  0  0  0  0  0  0  0
    2.1434    2.8570    0.0000 C   0  0  0  0  0  0  0  0  0  0  0  0
    2.1434    3.6820    0.0000 F   0  0  0  0  0  0  0  0  0  0  0  0
    1.4289    2.4445    0.0000 C   0  0  0  0  0  0  0  0  0  0  0  0
    1.4289    1.6195    0.0000 C   0  0  0  0  0  0  0  0  0  0  0  0
    1.4289   -1.6805    0.0000 C   0  0  0  0  0  0  0  0  0  0  0  0
    2.1434   -2.0930    0.0000 O   0  0  0  0  0  0  0  0  0  0  0  0
    0.7145   -2.0930    0.0000 N   0  0  0  0  0  0  0  0  0  0  0  0
    0.7145   -2.9180    0.0000 C   0  0  0  0  0  0  0  0  0  0  0  0
   -0.0000   -3.3305    0.0000 C   0  0  0  0  0  0  0  0  0  0  0  0
   -0.0000   -4.1555    0.0000 C   0  0  0  0  0  0  0  0  0  0  0  0
   -0.7145   -4.5680    0.0000 C   0  0  0  0  0  0  0  0  0  0  0  0
   -1.4290   -4.9805    0.0000 F   0  0  0  0  0  0  0  0  0  0  0  0
   -0.3020   -5.2825    0.0000 F   0  0  0  0  0  0  0  0  0  0  0  0
   -1.1270   -3.8536    0.0000 F   0  0  0  0  0  0  0  0  0  0  0  0
    0.7145   -4.5680    0.0000 C   0  0  0  0  0  0  0  0  0  0  0  0
    0.7145   -5.3930    0.0000 C   0  0  0  0  0  0  0  0  0  0  0  0
    0.7145   -6.2180    0.0000 N   0  0  0  0  0  0  0  0  0  0  0  0
    1.4289   -4.1555    0.0000 C   0  0  0  0  0  0  0  0  0  0  0  0
    1.4289   -3.3305    0.0000 C   0  0  0  0  0  0  0  0  0  0  0  0
  1  2  1  0  0  0  0
  2  3  1  0  0  0  0
  2  4  1  0  0  0  0
  4  5  1  0  0  0  0
  5  6  1  0  0  0  0
  7  6  1  0  0  0  0
  8  7  2  0  0  0  0
  9  8  1  0  0  0  0
  9 10  1  0  0  0  0
 11  9  2  0  0  0  0
 12 11  1  0  0  0  0
  6 12  2  0  0  0  0
  2 13  1  0  0  0  0
 13 14  2  0  0  0  0
 13 15  1  0  0  0  0
 15 16  1  0  0  0  0
 17 16  1  0  0  0  0
 18 17  2  0  0  0  0
 18 19  1  0  0  0  0
 19 20  1  0  0  0  0
 19 21  1  0  0  0  0
 19 22  1  0  0  0  0
 23 18  1  0  0  0  0
 23 24  1  0  0  0  0
 24 25  3  0  0  0  0
 26 23  2  0  0  0  0
 27 26  1  0  0  0  0
 16 27  2  0  0  0  0
M  END
> <RowID>
787

> <Original_SMILES>
CC(O)(CSC1C=CC(F)=CC=1)C(=O)NC1C=C(C(=CC=1)C#N)C(F)(F)F

> <Canonical_QSARr>
CC(O)(CSC1C=CC(F)=CC=1)C(=O)NC1C=C(C(=CC=1)C#N)C(F)(F)F

> <InChI_Code_QSARr>
InChI=1S/C18H14F4N2O2S/c1-17(26,10-27-14-6-3-12(19)4-7-14)16(25)24-13-5-2-11(9-23)15(8-13)18(20,21)22/h2-8,26H,10H2,1H3,(H,24,25)

> <InChI Key_QSARr>
GCGWWKKSGPETMI-UHFFFAOYSA-N

> <Salt_Solvent>


> <Salt_Solvent_ID>
0

> <Number of connected components>
1

$$$$
Molecule_788
  Mrv2316 01072400032D          

 15 14  0  0  0  0            999 V2000
    6.7105    4.6993    0.0000 C   0  0  0  0  0  0  0  0  0  0  0  0
    7.4250    4.2868    0.0000 C   0  0  0  0  0  0  0  0  0  0  0  0
    8.1395    4.6993    0.0000 C   0  0  0  0  0  0  0  0  0  0  0  0
    8.8539    4.2868    0.0000 C   0  0  0  0  0  0  0  0  0  0  0  0
    9.5684    4.6993    0.0000 O   0  0  0  0  0  0  0  0  0  0  0  0
   10.2829    4.2868    0.0000 C   0  0  0  0  0  0  0  0  0  0  0  0
   10.9974    4.6993    0.0000 C   0  0  0  0  0  0  0  0  0  0  0  0
   11.7118    4.2868    0.0000 O   0  0  0  0  0  0  0  0  0  0  0  0
   12.4263    4.6993    0.0000 C   0  0  0  0  0  0  0  0  0  0  0  0
   13.1408    4.2868    0.0000 C   0  0  0  0  0  0  0  0  0  0  0  0
   13.8552    4.6993    0.0000 O   0  0  0  0  0  0  0  0  0  0  0  0
   14.5697    4.2868    0.0000 C   0  0  0  0  0  0  0  0  0  0  0  0
   15.2842    4.6993    0.0000 C   0  0  0  0  0  0  0  0  0  0  0  0
   15.9987    4.2868    0.0000 C   0  0  0  0  0  0  0  0  0  0  0  0
   16.7131    4.6993    0.0000 C   0  0  0  0  0  0  0  0  0  0  0  0
  1  2  1  0  0  0  0
  2  3  1  0  0  0  0
  3  4  1  0  0  0  0
  4  5  1  0  0  0  0
  5  6  1  0  0  0  0
  6  7  1  0  0  0  0
  7  8  1  0  0  0  0
  8  9  1  0  0  0  0
  9 10  1  0  0  0  0
 10 11  1  0  0  0  0
 11 12  1  0  0  0  0
 12 13  1  0  0  0  0
 13 14  1  0  0  0  0
 14 15  1  0  0  0  0
M  END
> <RowID>
788

> <Original_SMILES>
CCCCOCCOCCOCCCC

> <Canonical_QSARr>
CCCCOCCOCCOCCCC

> <InChI_Code_QSARr>
InChI=1S/C12H26O3/c1-3-5-7-13-9-11-15-12-10-14-8-6-4-2/h3-12H2,1-2H3

> <InChI Key_QSARr>
KZVBBTZJMSWGTK-UHFFFAOYSA-N

> <Salt_Solvent>


> <Salt_Solvent_ID>
0

> <Number of connected components>
1

$$$$
Molecule_789
  Mrv2316 01072400032D          

 14 15  0  0  0  0            999 V2000
    0.0000   -1.6500    0.0000 O   0  0  0  0  0  0  0  0  0  0  0  0
    0.7145   -1.2375    0.0000 C   0  0  0  0  0  0  0  0  0  0  0  0
    0.7145   -0.4125    0.0000 C   0  0  0  0  0  0  0  0  0  0  0  0
    1.4289    0.0000    0.0000 C   0  0  0  0  0  0  0  0  0  0  0  0
    2.1434   -0.4125    0.0000 C   0  0  0  0  0  0  0  0  0  0  0  0
    2.8579    0.0000    0.0000 C   0  0  0  0  0  0  0  0  0  0  0  0
    3.5724   -0.4125    0.0000 C   0  0  0  0  0  0  0  0  0  0  0  0
    3.5724   -1.2375    0.0000 C   0  0  0  0  0  0  0  0  0  0  0  0
    2.8579   -1.6500    0.0000 C   0  0  0  0  0  0  0  0  0  0  0  0
    2.1434   -1.2375    0.0000 C   0  0  0  0  0  0  0  0  0  0  0  0
    1.4289   -1.6500    0.0000 C   0  0  0  0  0  0  0  0  0  0  0  0
    4.2868   -0.0000    0.0000 B   0  0  0  0  0  0  0  0  0  0  0  0
    4.2868    0.8250    0.0000 O   0  0  0  0  0  0  0  0  0  0  0  0
    5.0013   -0.4125    0.0000 O   0  0  0  0  0  0  0  0  0  0  0  0
  1  2  1  0  0  0  0
  3  2  1  0  0  0  0
  4  3  2  0  0  0  0
  5  4  1  0  0  0  0
  5  6  1  0  0  0  0
  6  7  2  0  0  0  0
  7  8  1  0  0  0  0
  8  9  2  0  0  0  0
  9 10  1  0  0  0  0
 10  5  2  0  0  0  0
 11 10  1  0  0  0  0
  2 11  2  0  0  0  0
  7 12  1  0  0  0  0
 12 13  1  0  0  0  0
 12 14  1  0  0  0  0
M  END
> <RowID>
789

> <Original_SMILES>
OC1C=CC2C=C(C=CC=2C=1)B(O)O

> <Canonical_QSARr>
OC1C=CC2C=C(C=CC=2C=1)B(O)O

> <InChI_Code_QSARr>
InChI=1S/C10H9BO3/c12-10-4-2-7-5-9(11(13)14)3-1-8(7)6-10/h1-6,12-14H

> <InChI Key_QSARr>
SNJANQMHRGSHFN-UHFFFAOYSA-N

> <Salt_Solvent>


> <Salt_Solvent_ID>
0

> <Number of connected components>
1

$$$$
Molecule_790
  Mrv2316 01072400032D          

 13 12  0  0  0  0            999 V2000
    5.1414    1.3184    0.0000 C   0  0  0  0  0  0  0  0  0  0  0  0
    5.1414    2.1434    0.0000 C   0  0  0  0  0  0  0  0  0  0  0  0
    4.4270    2.5559    0.0000 C   0  0  0  0  0  0  0  0  0  0  0  0
    3.7125    2.1434    0.0000 C   0  0  0  0  0  0  0  0  0  0  0  0
    2.9980    2.5559    0.0000 C   0  0  0  0  0  0  0  0  0  0  0  0
    2.9980    3.3809    0.0000 C   0  0  0  0  0  0  0  0  0  0  0  0
    2.2836    3.7934    0.0000 C   0  0  0  0  0  0  0  0  0  0  0  0
    3.7125    3.7934    0.0000 C   0  0  0  0  0  0  0  0  0  0  0  0
    5.8559    2.5559    0.0000 C   0  0  0  0  0  0  0  0  0  0  0  0
    6.5704    2.1434    0.0000 C   0  0  0  0  0  0  0  0  0  0  0  0
    7.2849    2.5559    0.0000 O   0  0  0  0  0  0  0  0  0  0  0  0
    7.9993    2.1434    0.0000 C   0  0  0  0  0  0  0  0  0  0  0  0
    8.7138    2.5559    0.0000 O   0  0  0  0  0  0  0  0  0  0  0  0
  1  2  1  0  0  0  0
  2  3  1  0  0  0  0
  3  4  1  0  0  0  0
  4  5  1  0  0  0  0
  5  6  2  0  0  0  0
  6  7  1  0  0  0  0
  6  8  1  0  0  0  0
  2  9  1  0  0  0  0
  9 10  1  0  0  0  0
 10 11  1  0  0  0  0
 11 12  1  0  0  0  0
 12 13  2  0  0  0  0
M  END
> <RowID>
790

> <Original_SMILES>
CC(CCC=C(C)C)CCOC=O

> <Canonical_QSARr>
CC(CCC=C(C)C)CCOC=O

> <InChI_Code_QSARr>
InChI=1S/C11H20O2/c1-10(2)5-4-6-11(3)7-8-13-9-12/h5,9,11H,4,6-8H2,1-3H3

> <InChI Key_QSARr>
DZNVIZQPWLDQHI-UHFFFAOYSA-N

> <Salt_Solvent>


> <Salt_Solvent_ID>
0

> <Number of connected components>
1

$$$$
Molecule_792
  Mrv2316 01072400032D          

 13 12  0  0  0  0            999 V2000
    5.4730    3.9849    0.0000 C   0  0  0  0  0  0  0  0  0  0  0  0
    6.1875    3.5724    0.0000 C   0  0  0  0  0  0  0  0  0  0  0  0
    6.9020    3.9849    0.0000 C   0  0  0  0  0  0  0  0  0  0  0  0
    7.6164    3.5724    0.0000 C   0  0  0  0  0  0  0  0  0  0  0  0
    8.3309    3.9849    0.0000 C   0  0  0  0  0  0  0  0  0  0  0  0
    9.0454    3.5724    0.0000 C   0  0  0  0  0  0  0  0  0  0  0  0
    9.7599    3.9849    0.0000 C   0  0  0  0  0  0  0  0  0  0  0  0
   10.4743    3.5724    0.0000 C   0  0  0  0  0  0  0  0  0  0  0  0
   11.1888    3.9849    0.0000 C   0  0  0  0  0  0  0  0  0  0  0  0
   11.9033    3.5724    0.0000 C   0  0  0  0  0  0  0  0  0  0  0  0
   12.6177    3.9849    0.0000 C   0  0  0  0  0  0  0  0  0  0  0  0
   13.3322    3.5724    0.0000 C   0  0  0  0  0  0  0  0  0  0  0  0
   14.0467    3.9849    0.0000 Br  0  0  0  0  0  0  0  0  0  0  0  0
  1  2  1  0  0  0  0
  2  3  1  0  0  0  0
  3  4  1  0  0  0  0
  4  5  1  0  0  0  0
  5  6  1  0  0  0  0
  6  7  1  0  0  0  0
  7  8  1  0  0  0  0
  8  9  1  0  0  0  0
  9 10  1  0  0  0  0
 10 11  1  0  0  0  0
 11 12  1  0  0  0  0
 12 13  1  0  0  0  0
M  END
> <RowID>
792

> <Original_SMILES>
CCCCCCCCCCCCBr

> <Canonical_QSARr>
CCCCCCCCCCCCBr

> <InChI_Code_QSARr>
InChI=1S/C12H25Br/c1-2-3-4-5-6-7-8-9-10-11-12-13/h2-12H2,1H3

> <InChI Key_QSARr>
PBLNBZIONSLZBU-UHFFFAOYSA-N

> <Salt_Solvent>


> <Salt_Solvent_ID>
0

> <Number of connected components>
1

$$$$
Molecule_793
  Mrv2316 01072400032D          

 14 16  0  0  0  0            999 V2000
    0.1175   -3.1810    0.0000 O   0  0  0  0  0  0  0  0  0  0  0  0
    0.6695   -2.5679    0.0000 C   0  0  0  0  0  0  0  0  0  0  0  0
    1.4765   -2.7395    0.0000 C   0  0  0  0  0  0  0  0  0  0  0  0
    2.0285   -2.1264    0.0000 C   0  0  0  0  0  0  0  0  0  0  0  0
    2.8535   -2.1264    0.0000 C   0  0  0  0  0  0  0  0  0  0  0  0
    3.4056   -2.7395    0.0000 C   0  0  0  0  0  0  0  0  0  0  0  0
    4.2125   -2.5679    0.0000 C   0  0  0  0  0  0  0  0  0  0  0  0
    4.4675   -1.7833    0.0000 C   0  0  0  0  0  0  0  0  0  0  0  0
    3.9154   -1.1702    0.0000 C   0  0  0  0  0  0  0  0  0  0  0  0
    3.1085   -1.3418    0.0000 C   0  0  0  0  0  0  0  0  0  0  0  0
    2.4410   -0.8568    0.0000 N   0  0  0  0  0  0  0  0  0  0  0  0
    1.7736   -1.3418    0.0000 C   0  0  0  0  0  0  0  0  0  0  0  0
    0.9666   -1.1702    0.0000 C   0  0  0  0  0  0  0  0  0  0  0  0
    0.4146   -1.7833    0.0000 C   0  0  0  0  0  0  0  0  0  0  0  0
  1  2  2  0  0  0  0
  3  2  1  0  0  0  0
  4  3  1  0  0  0  0
  4  5  1  0  0  0  0
  6  5  2  0  0  0  0
  7  6  1  0  0  0  0
  8  7  2  0  0  0  0
  9  8  1  0  0  0  0
 10  9  2  0  0  0  0
  5 10  1  0  0  0  0
 10 11  1  0  0  0  0
 11 12  1  0  0  0  0
 12  4  2  0  0  0  0
 13 12  1  0  0  0  0
 14 13  1  0  0  0  0
  2 14  1  0  0  0  0
M  END
> <RowID>
793

> <Original_SMILES>
O=C1CC2C3=CC=CC=C3NC=2CC1

> <Canonical_QSARr>
O=C1CC2C3=CC=CC=C3NC=2CC1

> <InChI_Code_QSARr>
InChI=1S/C12H11NO/c14-8-5-6-12-10(7-8)9-3-1-2-4-11(9)13-12/h1-4,13H,5-7H2

> <InChI Key_QSARr>
MTTUMRIEUVCVNO-UHFFFAOYSA-N

> <Salt_Solvent>


> <Salt_Solvent_ID>
0

> <Number of connected components>
1

$$$$
Molecule_794
  Mrv2316 01072400032D          

 26 27  0  0  0  0            999 V2000
    2.1434   -5.3942    0.0000 C   0  0  0  0  0  0  0  0  0  0  0  0
    1.4289   -4.9817    0.0000 C   0  0  0  0  0  0  0  0  0  0  0  0
    0.7145   -5.3942    0.0000 O   0  0  0  0  0  0  0  0  0  0  0  0
    1.4289   -4.1567    0.0000 C   0  0  0  0  0  0  0  0  0  0  0  0
    0.7145   -3.7442    0.0000 N   0  0  0  0  0  0  0  0  0  0  0  0
    0.7145   -2.9192    0.0000 N   0  0  0  0  0  0  0  0  0  0  0  0
    0.0000   -2.5067    0.0000 C   0  0  0  0  0  0  0  0  0  0  0  0
    0.0000   -1.6817    0.0000 C   0  0  0  0  0  0  0  0  0  0  0  0
   -0.7145   -1.2692    0.0000 C   0  0  0  0  0  0  0  0  0  0  0  0
   -1.4289   -1.6817    0.0000 C   0  0  0  0  0  0  0  0  0  0  0  0
   -1.4289   -2.5067    0.0000 C   0  0  0  0  0  0  0  0  0  0  0  0
   -0.7145   -2.9192    0.0000 C   0  0  0  0  0  0  0  0  0  0  0  0
   -0.7145   -3.7442    0.0000 C   0  0  0  0  0  0  0  0  0  0  0  0
    0.0000   -4.1567    0.0000 O   0  0  0  0  0  0  0  0  0  0  0  0
   -1.4289   -4.1567    0.0000 O   0  0  0  0  0  0  0  0  0  0  0  0
    2.1434   -3.7442    0.0000 C   0  0  0  0  0  0  0  0  0  0  0  0
    2.1434   -2.9192    0.0000 O   0  0  0  0  0  0  0  0  0  0  0  0
    2.8579   -4.1567    0.0000 N   0  0  0  0  0  0  0  0  0  0  0  0
    3.5724   -3.7442    0.0000 C   0  0  0  0  0  0  0  0  0  0  0  0
    4.2868   -4.1567    0.0000 C   0  0  0  0  0  0  0  0  0  0  0  0
    5.0013   -3.7442    0.0000 C   0  0  0  0  0  0  0  0  0  0  0  0
    5.0013   -2.9192    0.0000 C   0  0  0  0  0  0  0  0  0  0  0  0
    4.2868   -2.5067    0.0000 C   0  0  0  0  0  0  0  0  0  0  0  0
    3.5724   -2.9192    0.0000 C   0  0  0  0  0  0  0  0  0  0  0  0
    2.8579   -2.5067    0.0000 O   0  0  0  0  0  0  0  0  0  0  0  0
    2.8579   -1.6817    0.0000 C   0  0  0  0  0  0  0  0  0  0  0  0
  1  2  1  0  0  0  0
  2  3  2  0  0  0  0
  2  4  1  0  0  0  0
  5  4  1  4  0  0  0
  5  6  2  0  0  0  0
  6  7  1  0  0  0  0
  8  7  1  0  0  0  0
  9  8  2  0  0  0  0
 10  9  1  0  0  0  0
 11 10  2  0  0  0  0
 12 11  1  0  0  0  0
  7 12  2  0  0  0  0
 12 13  1  0  0  0  0
 13 14  1  0  0  0  0
 13 15  2  0  0  0  0
  4 16  1  0  0  0  0
 16 17  2  0  0  0  0
 16 18  1  0  0  0  0
 18 19  1  0  0  0  0
 20 19  2  0  0  0  0
 21 20  1  0  0  0  0
 22 21  2  0  0  0  0
 23 22  1  0  0  0  0
 24 23  2  0  0  0  0
 19 24  1  0  0  0  0
 24 25  1  0  0  0  0
 25 26  1  0  0  0  0
M  END
> <RowID>
794

> <Original_SMILES>
CC(=O)C(N=NC1C=CC=CC=1C(O)=O)C(=O)NC1=CC=CC=C1OC

> <Canonical_QSARr>
CC(=O)C(N=NC1C=CC=CC=1C(O)=O)C(=O)NC1=CC=CC=C1OC

> <InChI_Code_QSARr>
InChI=1S/C18H17N3O5/c1-11(22)16(17(23)19-14-9-5-6-10-15(14)26-2)21-20-13-8-4-3-7-12(13)18(24)25/h3-10,16H,1-2H3,(H,19,23)(H,24,25)

> <InChI Key_QSARr>
RDCAJFZYOSLJBZ-UHFFFAOYSA-N

> <Salt_Solvent>


> <Salt_Solvent_ID>
0

> <Number of connected components>
1

$$$$
Molecule_795
  Mrv2316 01072400032D          

 16 16  0  0  0  0            999 V2000
    1.4289   -0.6703    0.0000 C   0  0  0  0  0  0  0  0  0  0  0  0
    0.7145   -0.2578    0.0000 C   0  0  0  0  0  0  0  0  0  0  0  0
    0.0000   -0.6703    0.0000 C   0  0  0  0  0  0  0  0  0  0  0  0
    0.7145    0.5672    0.0000 C   0  0  0  0  0  0  0  0  0  0  0  0
    1.4289    0.9797    0.0000 C   0  0  0  0  0  0  0  0  0  0  0  0
    1.4289    1.8047    0.0000 C   0  0  0  0  0  0  0  0  0  0  0  0
    0.7145    2.2172    0.0000 C   0  0  0  0  0  0  0  0  0  0  0  0
    0.7145    3.0422    0.0000 C   0  0  0  0  0  0  0  0  0  0  0  0
    0.0000    1.8047    0.0000 C   0  0  0  0  0  0  0  0  0  0  0  0
    0.0000    0.9797    0.0000 C   0  0  0  0  0  0  0  0  0  0  0  0
   -0.7145    0.5672    0.0000 O   0  0  0  0  0  0  0  0  0  0  0  0
   -1.4289    0.9797    0.0000 C   0  0  0  0  0  0  0  0  0  0  0  0
   -1.4289    1.8047    0.0000 O   0  0  0  0  0  0  0  0  0  0  0  0
   -2.1434    0.5672    0.0000 C   0  0  0  0  0  0  0  0  0  0  0  0
   -2.1434   -0.2578    0.0000 C   0  0  0  0  0  0  0  0  0  0  0  0
   -2.8579    0.9797    0.0000 O   0  0  0  0  0  0  0  0  0  0  0  0
  1  2  1  0  0  0  0
  2  3  1  0  0  0  0
  2  4  1  0  0  0  0
  5  4  1  0  0  0  0
  6  5  1  0  0  0  0
  7  6  1  0  0  0  0
  7  8  1  0  0  0  0
  9  7  1  0  0  0  0
 10  9  1  0  0  0  0
  4 10  1  0  0  0  0
 10 11  1  0  0  0  0
 11 12  1  0  0  0  0
 12 13  2  0  0  0  0
 12 14  1  0  0  0  0
 14 15  1  0  0  0  0
 14 16  1  0  0  0  0
M  END
> <RowID>
795

> <Original_SMILES>
CC(C)C1CCC(C)CC1OC(=O)C(C)O

> <Canonical_QSARr>
CC(C)C1CCC(C)CC1OC(=O)C(C)O

> <InChI_Code_QSARr>
InChI=1S/C13H24O3/c1-8(2)11-6-5-9(3)7-12(11)16-13(15)10(4)14/h8-12,14H,5-7H2,1-4H3

> <InChI Key_QSARr>
UJNOLBSYLSYIBM-UHFFFAOYSA-N

> <Salt_Solvent>


> <Salt_Solvent_ID>
0

> <Number of connected components>
1

$$$$
Molecule_796
  Mrv2316 01072400032D          

 30 31  0  0  0  0            999 V2000
   -5.0013   -8.6350    0.0000 C   0  0  0  0  0  0  0  0  0  0  0  0
   -4.2868   -9.0475    0.0000 C   0  0  0  0  0  0  0  0  0  0  0  0
   -3.5724   -8.6350    0.0000 C   0  0  0  0  0  0  0  0  0  0  0  0
   -2.8579   -9.0475    0.0000 C   0  0  0  0  0  0  0  0  0  0  0  0
   -2.1434   -8.6350    0.0000 C   0  0  0  0  0  0  0  0  0  0  0  0
   -1.4289   -9.0475    0.0000 C   0  0  0  0  0  0  0  0  0  0  0  0
   -0.7145   -8.6350    0.0000 C   0  0  0  0  0  0  0  0  0  0  0  0
   -0.0000   -9.0475    0.0000 C   0  0  0  0  0  0  0  0  0  0  0  0
    0.7145   -8.6350    0.0000 C   0  0  0  0  0  0  0  0  0  0  0  0
    1.4289   -9.0475    0.0000 C   0  0  0  0  0  0  0  0  0  0  0  0
    2.1434   -8.6350    0.0000 C   0  0  0  0  0  0  0  0  0  0  0  0
    2.8579   -9.0475    0.0000 O   0  0  0  0  0  0  0  0  0  0  0  0
    3.5723   -8.6350    0.0000 C   0  0  0  0  0  0  0  0  0  0  0  0
    3.5723   -7.8100    0.0000 O   0  0  0  0  0  0  0  0  0  0  0  0
    4.2868   -9.0475    0.0000 C   0  0  0  0  0  0  0  0  0  0  0  0
    4.2868   -9.8725    0.0000 C   0  0  0  0  0  0  0  0  0  0  0  0
    4.2868  -10.6975    0.0000 N   0  0  0  0  0  0  0  0  0  0  0  0
    5.0013   -8.6350    0.0000 C   0  0  0  0  0  0  0  0  0  0  0  0
    5.0013   -7.8100    0.0000 C   0  0  0  0  0  0  0  0  0  0  0  0
    5.7158   -7.3975    0.0000 C   0  0  0  0  0  0  0  0  0  0  0  0
    5.7158   -6.5725    0.0000 C   0  0  0  0  0  0  0  0  0  0  0  0
    5.0013   -6.1600    0.0000 C   0  0  0  0  0  0  0  0  0  0  0  0
    4.2868   -6.5725    0.0000 C   0  0  0  0  0  0  0  0  0  0  0  0
    4.2868   -7.3975    0.0000 C   0  0  0  0  0  0  0  0  0  0  0  0
    5.7158   -9.0475    0.0000 C   0  0  0  0  0  0  0  0  0  0  0  0
    5.7158   -9.8725    0.0000 C   0  0  0  0  0  0  0  0  0  0  0  0
    6.4302  -10.2850    0.0000 C   0  0  0  0  0  0  0  0  0  0  0  0
    7.1447   -9.8725    0.0000 C   0  0  0  0  0  0  0  0  0  0  0  0
    7.1447   -9.0475    0.0000 C   0  0  0  0  0  0  0  0  0  0  0  0
    6.4302   -8.6350    0.0000 C   0  0  0  0  0  0  0  0  0  0  0  0
  1  2  2  0  0  0  0
  2  3  1  0  0  0  0
  3  4  1  0  0  0  0
  4  5  1  0  0  0  0
  5  6  1  0  0  0  0
  6  7  1  0  0  0  0
  7  8  1  0  0  0  0
  8  9  1  0  0  0  0
  9 10  1  0  0  0  0
 10 11  1  0  0  0  0
 11 12  1  0  0  0  0
 12 13  1  0  0  0  0
 13 14  2  0  0  0  0
 13 15  1  0  0  0  0
 15 16  1  0  0  0  0
 16 17  3  0  0  0  0
 15 18  2  0  0  0  0
 18 19  1  0  0  0  0
 20 19  1  0  0  0  0
 21 20  2  0  0  0  0
 22 21  1  0  0  0  0
 23 22  2  0  0  0  0
 24 23  1  0  0  0  0
 19 24  2  0  0  0  0
 18 25  1  0  0  0  0
 26 25  1  0  0  0  0
 27 26  2  0  0  0  0
 28 27  1  0  0  0  0
 29 28  2  0  0  0  0
 30 29  1  0  0  0  0
 25 30  2  0  0  0  0
M  END
> <RowID>
796

> <Original_SMILES>
C=CCCCCCCCCCOC(=O)C(C#N)=C(C1C=CC=CC=1)C1C=CC=CC=1

> <Canonical_QSARr>
C=CCCCCCCCCCOC(=O)C(C#N)=C(C1C=CC=CC=1)C1C=CC=CC=1

> <InChI_Code_QSARr>
InChI=1S/C27H31NO2/c1-2-3-4-5-6-7-8-9-16-21-30-27(29)25(22-28)26(23-17-12-10-13-18-23)24-19-14-11-15-20-24/h2,10-15,17-20H,1,3-9,16,21H2

> <InChI Key_QSARr>
ZMIFHAGGIBCROR-UHFFFAOYSA-N

> <Salt_Solvent>


> <Salt_Solvent_ID>
0

> <Number of connected components>
1

$$$$
Molecule_797
  Mrv2316 01072400032D          

 11 11  0  0  0  0            999 V2000
   -0.4547   -0.4125    0.0000 C   0  0  0  0  0  0  0  0  0  0  0  0
    0.2598    0.0000    0.0000 C   0  0  0  0  0  0  0  0  0  0  0  0
    0.9743   -0.4125    0.0000 C   0  0  0  0  0  0  0  0  0  0  0  0
    1.6887    0.0000    0.0000 C   0  0  0  0  0  0  0  0  0  0  0  0
    2.4032   -0.4125    0.0000 O   0  0  0  0  0  0  0  0  0  0  0  0
    1.6887    0.8250    0.0000 C   0  0  0  0  0  0  0  0  0  0  0  0
    0.9743    1.2375    0.0000 C   0  0  0  0  0  0  0  0  0  0  0  0
    1.5046    1.8695    0.0000 C   0  0  0  0  0  0  0  0  0  0  0  0
    0.4440    1.8695    0.0000 C   0  0  0  0  0  0  0  0  0  0  0  0
    0.2598    0.8250    0.0000 C   0  0  0  0  0  0  0  0  0  0  0  0
   -0.4547    1.2375    0.0000 O   0  0  0  0  0  0  0  0  0  0  0  0
  1  2  1  0  0  0  0
  3  2  1  0  0  0  0
  4  3  1  0  0  0  0
  4  5  1  0  0  0  0
  6  4  1  0  0  0  0
  7  6  1  0  0  0  0
  7  8  1  0  0  0  0
  7  9  1  0  0  0  0
 10  7  1  0  0  0  0
  2 10  1  0  0  0  0
 10 11  2  0  0  0  0
M  END
> <RowID>
797

> <Original_SMILES>
CC1CC(O)CC(C)(C)C1=O

> <Canonical_QSARr>
CC1CC(O)CC(C)(C)C1=O

> <InChI_Code_QSARr>
InChI=1S/C9H16O2/c1-6-4-7(10)5-9(2,3)8(6)11/h6-7,10H,4-5H2,1-3H3

> <InChI Key_QSARr>
CSPVUHYZUZZRGF-UHFFFAOYSA-N

> <Salt_Solvent>


> <Salt_Solvent_ID>
0

> <Number of connected components>
1

$$$$
Molecule_799
  Mrv2316 01072400032D          

 11 10  0  0  0  0            999 V2000
    4.2355    3.2704    0.0000 C   0  0  0  0  0  0  0  0  0  0  0  0
    4.9500    2.8579    0.0000 C   0  0  0  0  0  0  0  0  0  0  0  0
    5.6645    3.2704    0.0000 O   0  0  0  0  0  0  0  0  0  0  0  0
    6.3789    2.8579    0.0000 C   0  0  0  0  0  0  0  0  0  0  0  0
    7.0934    3.2704    0.0000 C   0  0  0  0  0  0  0  0  0  0  0  0
    7.8079    2.8579    0.0000 O   0  0  0  0  0  0  0  0  0  0  0  0
    8.5224    3.2704    0.0000 C   0  0  0  0  0  0  0  0  0  0  0  0
    9.2368    2.8579    0.0000 C   0  0  0  0  0  0  0  0  0  0  0  0
    9.9513    3.2704    0.0000 O   0  0  0  0  0  0  0  0  0  0  0  0
   10.6658    2.8579    0.0000 C   0  0  0  0  0  0  0  0  0  0  0  0
   11.3802    3.2704    0.0000 C   0  0  0  0  0  0  0  0  0  0  0  0
  1  2  1  0  0  0  0
  2  3  1  0  0  0  0
  3  4  1  0  0  0  0
  4  5  1  0  0  0  0
  5  6  1  0  0  0  0
  6  7  1  0  0  0  0
  7  8  1  0  0  0  0
  8  9  1  0  0  0  0
  9 10  1  0  0  0  0
 10 11  1  0  0  0  0
M  END
> <RowID>
799

> <Original_SMILES>
CCOCCOCCOCC

> <Canonical_QSARr>
CCOCCOCCOCC

> <InChI_Code_QSARr>
InChI=1S/C8H18O3/c1-3-9-5-7-11-8-6-10-4-2/h3-8H2,1-2H3

> <InChI Key_QSARr>
RRQYJINTUHWNHW-UHFFFAOYSA-N

> <Salt_Solvent>


> <Salt_Solvent_ID>
0

> <Number of connected components>
1

$$$$
Molecule_800
  Mrv2316 01072400032D          

 26 30  0  0  0  0            999 V2000
    5.0013   -0.4125    0.0000 N   0  0  0  0  0  0  0  0  0  0  0  0
    5.7158   -0.0000    0.0000 C   0  0  0  0  0  0  0  0  0  0  0  0
    6.4302   -0.4125    0.0000 C   0  0  0  0  0  0  0  0  0  0  0  0
    7.1447    0.0000    0.0000 C   0  0  0  0  0  0  0  0  0  0  0  0
    7.1447    0.8250    0.0000 C   0  0  0  0  0  0  0  0  0  0  0  0
    6.4302    1.2375    0.0000 C   0  0  0  0  0  0  0  0  0  0  0  0
    5.7158    0.8250    0.0000 C   0  0  0  0  0  0  0  0  0  0  0  0
    5.0013    1.2375    0.0000 C   0  0  0  0  0  0  0  0  0  0  0  0
    5.0013    2.0625    0.0000 O   0  0  0  0  0  0  0  0  0  0  0  0
    4.2868    0.8250    0.0000 C   0  0  0  0  0  0  0  0  0  0  0  0
    3.5724    1.2375    0.0000 C   0  0  0  0  0  0  0  0  0  0  0  0
    2.8579    0.8250    0.0000 C   0  0  0  0  0  0  0  0  0  0  0  0
    2.8579   -0.0000    0.0000 C   0  0  0  0  0  0  0  0  0  0  0  0
    3.5724   -0.4125    0.0000 C   0  0  0  0  0  0  0  0  0  0  0  0
    3.5724   -1.2375    0.0000 O   0  0  0  0  0  0  0  0  0  0  0  0
    4.2868   -0.0000    0.0000 C   0  0  0  0  0  0  0  0  0  0  0  0
    2.1434   -0.4125    0.0000 C   0  0  0  0  0  0  0  0  0  0  0  0
    2.1434   -1.2375    0.0000 O   0  0  0  0  0  0  0  0  0  0  0  0
    1.4289    0.0000    0.0000 C   0  0  0  0  0  0  0  0  0  0  0  0
    0.7145   -0.4125    0.0000 C   0  0  0  0  0  0  0  0  0  0  0  0
    0.0000    0.0000    0.0000 C   0  0  0  0  0  0  0  0  0  0  0  0
    0.0000    0.8250    0.0000 C   0  0  0  0  0  0  0  0  0  0  0  0
    0.7145    1.2375    0.0000 C   0  0  0  0  0  0  0  0  0  0  0  0
    1.4289    0.8250    0.0000 C   0  0  0  0  0  0  0  0  0  0  0  0
    2.1434    1.2375    0.0000 N   0  0  0  0  0  0  0  0  0  0  0  0
    3.5724    2.0625    0.0000 O   0  0  0  0  0  0  0  0  0  0  0  0
  2  1  1  0  0  0  0
  2  3  1  0  0  0  0
  3  4  2  0  0  0  0
  4  5  1  0  0  0  0
  5  6  2  0  0  0  0
  6  7  1  0  0  0  0
  7  2  2  0  0  0  0
  8  7  1  0  0  0  0
  8  9  2  0  0  0  0
 10  8  1  0  0  0  0
 10 11  1  0  0  0  0
 11 12  1  0  0  0  0
 13 12  1  0  0  0  0
 13 14  1  0  0  0  0
 14 15  2  0  0  0  0
 14 16  1  0  0  0  0
  1 16  2  0  0  0  0
 16 10  1  0  0  0  0
 17 13  1  0  0  0  0
 17 18  2  0  0  0  0
 19 17  1  0  0  0  0
 19 20  1  0  0  0  0
 20 21  2  0  0  0  0
 21 22  1  0  0  0  0
 22 23  2  0  0  0  0
 23 24  1  0  0  0  0
 24 19  2  0  0  0  0
 25 24  1  0  0  0  0
 12 25  2  0  0  0  0
 11 26  2  0  0  0  0
M  END
> <RowID>
800

> <Original_SMILES>
O=C1C2=C(NC3C=CC=CC=3C2=O)C(=O)C2=C1NC1C=CC=CC=1C2=O

> <Canonical_QSARr>
O=C1C2C(=NC3C=CC=CC=3C2=O)C(=O)C2C1=NC1C=CC=CC=1C2=O

> <InChI_Code_QSARr>
InChI=1S/C20H10N2O4/c23-17-9-5-1-3-7-11(9)21-15-13(17)19(25)16-14(20(15)26)18(24)10-6-2-4-8-12(10)22-16/h1-8,13-14H

> <InChI Key_QSARr>
LRTHAFLJRYIRKC-UHFFFAOYSA-N

> <Salt_Solvent>


> <Salt_Solvent_ID>
0

> <Number of connected components>
1

$$$$
Molecule_801
  Mrv2316 01072400032D          

 11 10  0  0  0  0            999 V2000
    4.2355    3.2704    0.0000 C   0  0  0  0  0  0  0  0  0  0  0  0
    4.9500    2.8579    0.0000 C   0  0  0  0  0  0  0  0  0  0  0  0
    5.6645    3.2704    0.0000 O   0  0  0  0  0  0  0  0  0  0  0  0
    6.3789    2.8579    0.0000 C   0  0  0  0  0  0  0  0  0  0  0  0
    7.0934    3.2704    0.0000 C   0  0  0  0  0  0  0  0  0  0  0  0
    7.8079    2.8579    0.0000 O   0  0  0  0  0  0  0  0  0  0  0  0
    8.5224    3.2704    0.0000 C   0  0  0  0  0  0  0  0  0  0  0  0
    9.2368    2.8579    0.0000 C   0  0  0  0  0  0  0  0  0  0  0  0
    9.9513    3.2704    0.0000 O   0  0  0  0  0  0  0  0  0  0  0  0
   10.6658    2.8579    0.0000 C   0  0  0  0  0  0  0  0  0  0  0  0
   11.3802    3.2704    0.0000 C   0  0  0  0  0  0  0  0  0  0  0  0
  1  2  2  0  0  0  0
  2  3  1  0  0  0  0
  3  4  1  0  0  0  0
  4  5  1  0  0  0  0
  5  6  1  0  0  0  0
  6  7  1  0  0  0  0
  7  8  1  0  0  0  0
  8  9  1  0  0  0  0
  9 10  1  0  0  0  0
 10 11  2  0  0  0  0
M  END
> <RowID>
801

> <Original_SMILES>
C=COCCOCCOC=C

> <Canonical_QSARr>
C=COCCOCCOC=C

> <InChI_Code_QSARr>
InChI=1S/C8H14O3/c1-3-9-5-7-11-8-6-10-4-2/h3-4H,1-2,5-8H2

> <InChI Key_QSARr>
SAMJGBVVQUEMGC-UHFFFAOYSA-N

> <Salt_Solvent>


> <Salt_Solvent_ID>
0

> <Number of connected components>
1

$$$$
Molecule_802
  Mrv2316 01072400032D          

 51 54  0  0  0  0            999 V2000
    0.2382   -3.1301    0.0000 O   0  0  0  0  0  0  0  0  0  0  0  0
    0.9526   -2.7176    0.0000 S   0  0  0  0  0  0  0  0  0  0  0  0
    1.3651   -3.4321    0.0000 O   0  0  0  0  0  0  0  0  0  0  0  0
    0.5401   -2.0032    0.0000 O   0  0  0  0  0  0  0  0  0  0  0  0
    1.6671   -2.3051    0.0000 C   0  0  0  0  0  0  0  0  0  0  0  0
    1.6671   -1.4801    0.0000 C   0  0  0  0  0  0  0  0  0  0  0  0
    2.3816   -1.0676    0.0000 C   0  0  0  0  0  0  0  0  0  0  0  0
    2.3816   -0.2426    0.0000 S   0  0  0  0  0  0  0  0  0  0  0  0
    2.3816    0.5824    0.0000 O   0  0  0  0  0  0  0  0  0  0  0  0
    3.2066   -0.2426    0.0000 O   0  0  0  0  0  0  0  0  0  0  0  0
    1.5566   -0.2426    0.0000 O   0  0  0  0  0  0  0  0  0  0  0  0
    3.0960   -1.4801    0.0000 C   0  0  0  0  0  0  0  0  0  0  0  0
    3.8105   -1.0676    0.0000 C   0  0  0  0  0  0  0  0  0  0  0  0
    4.5250   -1.4801    0.0000 C   0  0  0  0  0  0  0  0  0  0  0  0
    5.2394   -1.0676    0.0000 N   0  0  0  0  0  0  0  0  0  0  0  0
    5.9539   -1.4801    0.0000 N   0  0  0  0  0  0  0  0  0  0  0  0
    6.6684   -1.0676    0.0000 C   0  0  0  0  0  0  0  0  0  0  0  0
    7.3829   -1.4801    0.0000 C   0  0  0  0  0  0  0  0  0  0  0  0
    8.0973   -1.0676    0.0000 C   0  0  0  0  0  0  0  0  0  0  0  0
    8.0973   -0.2426    0.0000 C   0  0  0  0  0  0  0  0  0  0  0  0
    8.8118    0.1699    0.0000 N   0  0  0  0  0  0  0  0  0  0  0  0
    8.8118    0.9949    0.0000 C   0  0  0  0  0  0  0  0  0  0  0  0
    9.5263    1.4074    0.0000 N   0  0  0  0  0  0  0  0  0  0  0  0
    9.5263    2.2324    0.0000 C   0  0  0  0  0  0  0  0  0  0  0  0
   10.2407    2.6449    0.0000 S   0  0  0  0  0  0  0  0  0  0  0  0
   10.9552    2.2324    0.0000 C   0  0  0  0  0  0  0  0  0  0  0  0
   11.6697    2.6449    0.0000 C   0  0  0  0  0  0  0  0  0  0  0  0
   12.3842    2.2324    0.0000 C   0  0  0  0  0  0  0  0  0  0  0  0
   13.0986    2.6449    0.0000 S   0  0  0  0  0  0  0  0  0  0  0  0
   13.8131    3.0574    0.0000 O   0  0  0  0  0  0  0  0  0  0  0  0
   13.5111    1.9304    0.0000 O   0  0  0  0  0  0  0  0  0  0  0  0
   12.6861    3.3593    0.0000 O   0  0  0  0  0  0  0  0  0  0  0  0
    8.8118    2.6449    0.0000 N   0  0  0  0  0  0  0  0  0  0  0  0
    8.0973    2.2324    0.0000 C   0  0  0  0  0  0  0  0  0  0  0  0
    7.3829    2.6449    0.0000 S   0  0  0  0  0  0  0  0  0  0  0  0
    6.6684    2.2324    0.0000 C   0  0  0  0  0  0  0  0  0  0  0  0
    5.9539    2.6449    0.0000 C   0  0  0  0  0  0  0  0  0  0  0  0
    5.2394    2.2324    0.0000 C   0  0  0  0  0  0  0  0  0  0  0  0
    4.5250    2.6449    0.0000 S   0  0  0  0  0  0  0  0  0  0  0  0
    4.9375    3.3593    0.0000 O   0  0  0  0  0  0  0  0  0  0  0  0
    4.1125    1.9304    0.0000 O   0  0  0  0  0  0  0  0  0  0  0  0
    3.8105    3.0574    0.0000 O   0  0  0  0  0  0  0  0  0  0  0  0
    8.0973    1.4074    0.0000 N   0  0  0  0  0  0  0  0  0  0  0  0
    7.3829    0.1699    0.0000 C   0  0  0  0  0  0  0  0  0  0  0  0
    7.3829    0.9949    0.0000 O   0  0  0  0  0  0  0  0  0  0  0  0
    6.6684    1.4074    0.0000 C   0  0  0  0  0  0  0  0  0  0  0  0
    6.6684   -0.2426    0.0000 C   0  0  0  0  0  0  0  0  0  0  0  0
    4.5250   -2.3051    0.0000 C   0  0  0  0  0  0  0  0  0  0  0  0
    3.8105   -2.7176    0.0000 C   0  0  0  0  0  0  0  0  0  0  0  0
    3.0960   -2.3051    0.0000 C   0  0  0  0  0  0  0  0  0  0  0  0
    2.3816   -2.7176    0.0000 C   0  0  0  0  0  0  0  0  0  0  0  0
  1  2  1  0  0  0  0
  2  3  2  0  0  0  0
  2  4  2  0  0  0  0
  2  5  1  0  0  0  0
  6  5  1  0  0  0  0
  7  6  2  0  0  0  0
  7  8  1  0  0  0  0
  8  9  1  0  0  0  0
  8 10  2  0  0  0  0
  8 11  2  0  0  0  0
 12  7  1  0  0  0  0
 12 13  1  0  0  0  0
 13 14  2  0  0  0  0
 15 14  1  4  0  0  0
 15 16  2  0  0  0  0
 16 17  1  0  0  0  0
 18 17  1  0  0  0  0
 19 18  2  0  0  0  0
 20 19  1  0  0  0  0
 20 21  1  0  0  0  0
 21 22  1  0  0  0  0
 23 22  2  0  0  0  0
 24 23  1  0  0  0  0
 24 25  1  0  0  0  0
 25 26  1  0  0  0  0
 26 27  1  0  0  0  0
 27 28  1  0  0  0  0
 28 29  1  0  0  0  0
 29 30  1  0  0  0  0
 29 31  2  0  0  0  0
 29 32  2  0  0  0  0
 33 24  2  0  0  0  0
 34 33  1  0  0  0  0
 34 35  1  0  0  0  0
 35 36  1  0  0  0  0
 36 37  1  0  0  0  0
 37 38  1  0  0  0  0
 38 39  1  0  0  0  0
 39 40  1  0  0  0  0
 39 41  2  0  0  0  0
 39 42  2  0  0  0  0
 43 34  2  0  0  0  0
 22 43  1  0  0  0  0
 44 20  2  0  0  0  0
 44 45  1  0  0  0  0
 45 46  1  0  0  0  0
 47 44  1  0  0  0  0
 17 47  2  0  0  0  0
 14 48  1  0  0  0  0
 48 49  2  0  0  0  0
 49 50  1  0  0  0  0
 50 12  2  0  0  0  0
 51 50  1  0  0  0  0
  5 51  2  0  0  0  0
M  END
> <RowID>
802

> <Original_SMILES>
[Na+].[Na+].[Na+].[Na+].COC1C=C(C=CC=1NC1N=C(N=C(N=1)SCCCS([O-])(=O)=O)SCCCS([O-])(=O)=O)N=NC1C=C2C(=CC(=CC2=CC=1)S([O-])(=O)=O)S([O-])(=O)=O

> <Canonical_QSARr>
COC1C=C(C=CC=1NC1N=C(N=C(N=1)SCCCS(O)(=O)=O)SCCCS(O)(=O)=O)N=NC1=CC2C(=CC(=CC=2C=C1)S(O)(=O)=O)S(O)(=O)=O

> <InChI_Code_QSARr>
InChI=1S/C26H28N6O13S6/c1-45-22-14-18(32-31-17-5-4-16-12-19(50(39,40)41)15-23(20(16)13-17)51(42,43)44)6-7-21(22)27-24-28-25(46-8-2-10-48(33,34)35)30-26(29-24)47-9-3-11-49(36,37)38/h4-7,12-15H,2-3,8-11H2,1H3,(H,33,34,35)(H,36,37,38)(H,39,40,41)(H,42,43,44)(H,27,28,29,30)

> <InChI Key_QSARr>
GSFKXHIOPJMDLU-UHFFFAOYSA-N

> <Salt_Solvent>
[Na+]

> <Salt_Solvent_ID>
110

> <Number of connected components>
5

$$$$
Molecule_803
  Mrv2316 01072400032D          

 10 10  0  0  0  0            999 V2000
   -0.1600   -1.7018    0.0000 C   0  0  0  0  0  0  0  0  0  0  0  0
    0.3249   -1.0343    0.0000 O   0  0  0  0  0  0  0  0  0  0  0  0
   -0.0106   -0.2806    0.0000 C   0  0  0  0  0  0  0  0  0  0  0  0
    0.4743    0.3868    0.0000 C   0  0  0  0  0  0  0  0  0  0  0  0
    1.2993    0.3868    0.0000 C   0  0  0  0  0  0  0  0  0  0  0  0
    1.5542    1.1714    0.0000 C   0  0  0  0  0  0  0  0  0  0  0  0
    0.8868    1.6563    0.0000 C   0  0  0  0  0  0  0  0  0  0  0  0
    0.8868    2.4813    0.0000 C   0  0  0  0  0  0  0  0  0  0  0  0
    0.1723    2.8938    0.0000 O   0  0  0  0  0  0  0  0  0  0  0  0
    0.2193    1.1714    0.0000 O   0  0  0  0  0  0  0  0  0  0  0  0
  1  2  1  0  0  0  0
  2  3  1  0  0  0  0
  3  4  1  0  0  0  0
  5  4  2  0  0  0  0
  6  5  1  0  0  0  0
  7  6  2  0  0  0  0
  7  8  1  0  0  0  0
  8  9  2  0  0  0  0
 10  7  1  0  0  0  0
  4 10  1  0  0  0  0
M  END
> <RowID>
803

> <Original_SMILES>
COCC1=CC=C(C=O)O1

> <Canonical_QSARr>
COCC1=CC=C(C=O)O1

> <InChI_Code_QSARr>
InChI=1S/C7H8O3/c1-9-5-7-3-2-6(4-8)10-7/h2-4H,5H2,1H3

> <InChI Key_QSARr>
ASHVULSQMDWKFO-UHFFFAOYSA-N

> <Salt_Solvent>


> <Salt_Solvent_ID>
0

> <Number of connected components>
1

$$$$
Molecule_804
  Mrv2316 01072400032D          

 16 16  0  0  0  0            999 V2000
   -5.6265    0.9797    0.0000 C   0  0  0  0  0  0  0  0  0  0  0  0
   -4.9120    0.5672    0.0000 O   0  0  0  0  0  0  0  0  0  0  0  0
   -4.1975    0.9797    0.0000 C   0  0  0  0  0  0  0  0  0  0  0  0
   -3.4830    0.5672    0.0000 C   0  0  0  0  0  0  0  0  0  0  0  0
   -2.7686    0.9797    0.0000 C   0  0  0  0  0  0  0  0  0  0  0  0
   -2.0541    0.5672    0.0000 N   0  0  0  0  0  0  0  0  0  0  0  0
   -1.3396    0.9797    0.0000 C   0  0  0  0  0  0  0  0  0  0  0  0
   -1.3396    1.8047    0.0000 O   0  0  0  0  0  0  0  0  0  0  0  0
   -0.6252    0.5672    0.0000 C   0  0  0  0  0  0  0  0  0  0  0  0
    0.0893    0.9797    0.0000 C   0  0  0  0  0  0  0  0  0  0  0  0
    0.8038    1.3922    0.0000 N   0  0  0  0  0  0  0  0  0  0  0  0
   -2.7686    1.8047    0.0000 C   0  0  0  0  0  0  0  0  0  0  0  0
   -2.0541    2.2172    0.0000 Cl  0  0  0  0  0  0  0  0  0  0  0  0
   -3.4830    2.2172    0.0000 C   0  0  0  0  0  0  0  0  0  0  0  0
   -4.1975    1.8047    0.0000 C   0  0  0  0  0  0  0  0  0  0  0  0
   -4.9120    2.2172    0.0000 Cl  0  0  0  0  0  0  0  0  0  0  0  0
  1  2  1  0  0  0  0
  2  3  1  0  0  0  0
  4  3  1  0  0  0  0
  5  4  2  0  0  0  0
  5  6  1  0  0  0  0
  6  7  1  0  0  0  0
  7  8  2  0  0  0  0
  7  9  1  0  0  0  0
  9 10  1  0  0  0  0
 10 11  3  0  0  0  0
 12  5  1  0  0  0  0
 12 13  1  0  0  0  0
 14 12  2  0  0  0  0
 15 14  1  0  0  0  0
  3 15  2  0  0  0  0
 15 16  1  0  0  0  0
M  END
> <RowID>
804

> <Original_SMILES>
COC1C=C(NC(=O)CC#N)C(Cl)=CC=1Cl

> <Canonical_QSARr>
COC1C=C(NC(=O)CC#N)C(Cl)=CC=1Cl

> <InChI_Code_QSARr>
InChI=1S/C10H8Cl2N2O2/c1-16-9-5-8(6(11)4-7(9)12)14-10(15)2-3-13/h4-5H,2H2,1H3,(H,14,15)

> <InChI Key_QSARr>
RPWHAQJEZWBZGX-UHFFFAOYSA-N

> <Salt_Solvent>


> <Salt_Solvent_ID>
0

> <Number of connected components>
1

$$$$
Molecule_805
  Mrv2316 01072400032D          

 24 23  0  0  0  0            999 V2000
    7.2336    5.0013    0.0000 C   0  0  0  0  0  0  0  0  0  0  0  0
    7.9481    5.4138    0.0000 C   0  0  0  0  0  0  0  0  0  0  0  0
    8.6625    5.0013    0.0000 C   0  0  0  0  0  0  0  0  0  0  0  0
    9.3770    5.4138    0.0000 C   0  0  0  0  0  0  0  0  0  0  0  0
   10.0915    5.0013    0.0000 C   0  0  0  0  0  0  0  0  0  0  0  0
   10.8060    5.4138    0.0000 C   0  0  0  0  0  0  0  0  0  0  0  0
   11.5204    5.0013    0.0000 O   0  0  0  0  0  0  0  0  0  0  0  0
   12.2349    5.4138    0.0000 C   0  0  0  0  0  0  0  0  0  0  0  0
   12.2349    6.2388    0.0000 O   0  0  0  0  0  0  0  0  0  0  0  0
   12.9494    5.0013    0.0000 C   0  0  0  0  0  0  0  0  0  0  0  0
   13.6638    5.4138    0.0000 C   0  0  0  0  0  0  0  0  0  0  0  0
   14.3783    5.0013    0.0000 C   0  0  0  0  0  0  0  0  0  0  0  0
   14.3783    4.1763    0.0000 O   0  0  0  0  0  0  0  0  0  0  0  0
   15.0928    5.4138    0.0000 O   0  0  0  0  0  0  0  0  0  0  0  0
   15.8073    5.0013    0.0000 C   0  0  0  0  0  0  0  0  0  0  0  0
   16.5217    5.4138    0.0000 C   0  0  0  0  0  0  0  0  0  0  0  0
   17.2362    5.0013    0.0000 C   0  0  0  0  0  0  0  0  0  0  0  0
   17.9507    5.4138    0.0000 C   0  0  0  0  0  0  0  0  0  0  0  0
   18.6651    5.0013    0.0000 C   0  0  0  0  0  0  0  0  0  0  0  0
   19.3796    5.4138    0.0000 C   0  0  0  0  0  0  0  0  0  0  0  0
   16.5217    6.2388    0.0000 C   0  0  0  0  0  0  0  0  0  0  0  0
   17.2362    6.6513    0.0000 C   0  0  0  0  0  0  0  0  0  0  0  0
   10.0915    4.1763    0.0000 C   0  0  0  0  0  0  0  0  0  0  0  0
   10.8060    3.7638    0.0000 C   0  0  0  0  0  0  0  0  0  0  0  0
  1  2  1  0  0  0  0
  2  3  1  0  0  0  0
  3  4  1  0  0  0  0
  4  5  1  0  0  0  0
  5  6  1  0  0  0  0
  6  7  1  0  0  0  0
  7  8  1  0  0  0  0
  8  9  2  0  0  0  0
  8 10  1  0  0  0  0
 10 11  1  0  0  0  0
 11 12  1  0  0  0  0
 12 13  2  0  0  0  0
 12 14  1  0  0  0  0
 14 15  1  0  0  0  0
 15 16  1  0  0  0  0
 16 17  1  0  0  0  0
 17 18  1  0  0  0  0
 18 19  1  0  0  0  0
 19 20  1  0  0  0  0
 16 21  1  0  0  0  0
 21 22  1  0  0  0  0
  5 23  1  0  0  0  0
 23 24  1  0  0  0  0
M  END
> <RowID>
805

> <Original_SMILES>
CCCCC(COC(=O)CCC(=O)OCC(CCCC)CC)CC

> <Canonical_QSARr>
CCCCC(COC(=O)CCC(=O)OCC(CCCC)CC)CC

> <InChI_Code_QSARr>
InChI=1S/C20H38O4/c1-5-9-11-17(7-3)15-23-19(21)13-14-20(22)24-16-18(8-4)12-10-6-2/h17-18H,5-16H2,1-4H3

> <InChI Key_QSARr>
WMNULTDOANGXRT-UHFFFAOYSA-N

> <Salt_Solvent>


> <Salt_Solvent_ID>
0

> <Number of connected components>
1

$$$$
Molecule_806
  Mrv2316 01072400032D          

 10 11  0  0  0  0            999 V2000
    2.7845    2.1829    0.0000 Cl  0  0  0  0  0  0  0  0  0  0  0  0
    2.0701    1.7704    0.0000 C   0  0  0  0  0  0  0  0  0  0  0  0
    1.3556    2.1829    0.0000 C   0  0  0  0  0  0  0  0  0  0  0  0
    0.6411    1.7704    0.0000 C   0  0  0  0  0  0  0  0  0  0  0  0
   -0.1435    2.0253    0.0000 O   0  0  0  0  0  0  0  0  0  0  0  0
   -0.6284    1.3579    0.0000 C   0  0  0  0  0  0  0  0  0  0  0  0
   -0.1435    0.6905    0.0000 N   0  0  0  0  0  0  0  0  0  0  0  0
    0.6411    0.9454    0.0000 C   0  0  0  0  0  0  0  0  0  0  0  0
    1.3556    0.5329    0.0000 C   0  0  0  0  0  0  0  0  0  0  0  0
    2.0701    0.9454    0.0000 C   0  0  0  0  0  0  0  0  0  0  0  0
  1  2  1  0  0  0  0
  3  2  2  0  0  0  0
  4  3  1  0  0  0  0
  4  5  1  0  0  0  0
  5  6  1  0  0  0  0
  6  7  2  0  0  0  0
  7  8  1  0  0  0  0
  8  4  2  0  0  0  0
  9  8  1  0  0  0  0
 10  9  2  0  0  0  0
  2 10  1  0  0  0  0
M  END
> <RowID>
806

> <Original_SMILES>
ClC1=CC2OC=NC=2C=C1

> <Canonical_QSARr>
ClC1=CC2OC=NC=2C=C1

> <InChI_Code_QSARr>
InChI=1S/C7H4ClNO/c8-5-1-2-6-7(3-5)10-4-9-6/h1-4H

> <InChI Key_QSARr>
JJOOKXUUVWIARB-UHFFFAOYSA-N

> <Salt_Solvent>


> <Salt_Solvent_ID>
0

> <Number of connected components>
1

$$$$
Molecule_807
  Mrv2316 01072400032D          

  5  4  0  0  0  0            999 V2000
    2.4750   -1.4289    0.0000 C   0  0  0  0  0  0  0  0  0  0  0  0
    2.0625   -0.7145    0.0000 C   0  0  0  0  0  0  0  0  0  0  0  0
    1.2375   -0.7145    0.0000 C   0  0  0  0  0  0  0  0  0  0  0  0
    0.8250   -0.0000    0.0000 C   0  0  0  0  0  0  0  0  0  0  0  0
    0.0000   -0.0000    0.0000 Br  0  0  0  0  0  0  0  0  0  0  0  0
  1  2  1  0  0  0  0
  2  3  1  0  0  0  0
  3  4  1  0  0  0  0
  4  5  1  0  0  0  0
M  END
> <RowID>
807

> <Original_SMILES>
CCCCBr

> <Canonical_QSARr>
CCCCBr

> <InChI_Code_QSARr>
InChI=1S/C4H9Br/c1-2-3-4-5/h2-4H2,1H3

> <InChI Key_QSARr>
MPPPKRYCTPRNTB-UHFFFAOYSA-N

> <Salt_Solvent>


> <Salt_Solvent_ID>
0

> <Number of connected components>
1

$$$$
Molecule_808
  Mrv2316 01072400032D          

 11 10  0  0  0  0            999 V2000
    4.4270    3.3809    0.0000 O   0  0  0  0  0  0  0  0  0  0  0  0
    4.4270    2.5559    0.0000 C   0  0  0  0  0  0  0  0  0  0  0  0
    3.7125    2.1434    0.0000 C   0  0  0  0  0  0  0  0  0  0  0  0
    2.9980    2.5559    0.0000 C   0  0  0  0  0  0  0  0  0  0  0  0
    2.2836    2.1434    0.0000 Cl  0  0  0  0  0  0  0  0  0  0  0  0
    5.1414    2.1434    0.0000 O   0  0  0  0  0  0  0  0  0  0  0  0
    5.8559    2.5559    0.0000 C   0  0  0  0  0  0  0  0  0  0  0  0
    6.5704    2.1434    0.0000 C   0  0  0  0  0  0  0  0  0  0  0  0
    7.2849    2.5559    0.0000 C   0  0  0  0  0  0  0  0  0  0  0  0
    7.9993    2.1434    0.0000 C   0  0  0  0  0  0  0  0  0  0  0  0
    8.7138    2.5559    0.0000 Cl  0  0  0  0  0  0  0  0  0  0  0  0
  1  2  2  0  0  0  0
  2  3  1  0  0  0  0
  3  4  1  0  0  0  0
  4  5  1  0  0  0  0
  2  6  1  0  0  0  0
  6  7  1  0  0  0  0
  7  8  1  0  0  0  0
  8  9  1  0  0  0  0
  9 10  1  0  0  0  0
 10 11  1  0  0  0  0
M  END
> <RowID>
808

> <Original_SMILES>
O=C(CCCl)OCCCCCl

> <Canonical_QSARr>
O=C(CCCl)OCCCCCl

> <InChI_Code_QSARr>
InChI=1S/C7H12Cl2O2/c8-4-1-2-6-11-7(10)3-5-9/h1-6H2

> <InChI Key_QSARr>
GEXJJRFMEPZBNW-UHFFFAOYSA-N

> <Salt_Solvent>


> <Salt_Solvent_ID>
0

> <Number of connected components>
1

$$$$
Molecule_809
  Mrv2316 01072400032D          

 24 27  0  0  0  0            999 V2000
    0.7846   -0.2549    0.0000 N   0  0  0  0  0  0  0  0  0  0  0  0
    1.2695    0.4125    0.0000 C   0  0  0  0  0  0  0  0  0  0  0  0
    1.0146    1.1971    0.0000 O   0  0  0  0  0  0  0  0  0  0  0  0
    2.0542    0.1576    0.0000 C   0  0  0  0  0  0  0  0  0  0  0  0
    2.8388    0.4125    0.0000 C   0  0  0  0  0  0  0  0  0  0  0  0
    3.0937    1.1971    0.0000 C   0  0  0  0  0  0  0  0  0  0  0  0
    3.9007    1.3686    0.0000 C   0  0  0  0  0  0  0  0  0  0  0  0
    4.1556    2.1533    0.0000 C   0  0  0  0  0  0  0  0  0  0  0  0
    3.6036    2.7664    0.0000 C   0  0  0  0  0  0  0  0  0  0  0  0
    3.8585    3.5510    0.0000 C   0  0  0  0  0  0  0  0  0  0  0  0
    2.7966    2.5948    0.0000 C   0  0  0  0  0  0  0  0  0  0  0  0
    2.5417    1.8102    0.0000 C   0  0  0  0  0  0  0  0  0  0  0  0
    3.3237   -0.2549    0.0000 N   0  0  0  0  0  0  0  0  0  0  0  0
    2.8388   -0.9224    0.0000 C   0  0  0  0  0  0  0  0  0  0  0  0
    3.0937   -1.7070    0.0000 O   0  0  0  0  0  0  0  0  0  0  0  0
    2.0542   -0.6674    0.0000 C   0  0  0  0  0  0  0  0  0  0  0  0
    1.2695   -0.9224    0.0000 C   0  0  0  0  0  0  0  0  0  0  0  0
    1.0146   -1.7070    0.0000 C   0  0  0  0  0  0  0  0  0  0  0  0
    0.2076   -1.8785    0.0000 C   0  0  0  0  0  0  0  0  0  0  0  0
   -0.0473   -2.6632    0.0000 C   0  0  0  0  0  0  0  0  0  0  0  0
    0.5047   -3.2762    0.0000 C   0  0  0  0  0  0  0  0  0  0  0  0
    0.2498   -4.0609    0.0000 C   0  0  0  0  0  0  0  0  0  0  0  0
    1.3117   -3.1047    0.0000 C   0  0  0  0  0  0  0  0  0  0  0  0
    1.5666   -2.3201    0.0000 C   0  0  0  0  0  0  0  0  0  0  0  0
  2  1  1  0  0  0  0
  2  3  2  0  0  0  0
  4  2  1  0  0  0  0
  4  5  2  0  0  0  0
  5  6  1  0  0  0  0
  7  6  1  0  0  0  0
  8  7  2  0  0  0  0
  9  8  1  0  0  0  0
  9 10  1  0  0  0  0
 11  9  2  0  0  0  0
 12 11  1  0  0  0  0
  6 12  2  0  0  0  0
  5 13  1  0  0  0  0
 13 14  1  0  0  0  0
 14 15  2  0  0  0  0
 14 16  1  0  0  0  0
 16  4  1  0  0  0  0
 17 16  1  0  0  0  0
  1 17  2  0  0  0  0
 17 18  1  0  0  0  0
 19 18  1  0  0  0  0
 20 19  2  0  0  0  0
 21 20  1  0  0  0  0
 21 22  1  0  0  0  0
 23 21  2  0  0  0  0
 24 23  1  0  0  0  0
 18 24  2  0  0  0  0
M  END
> <RowID>
809

> <Original_SMILES>
CC1C=CC(=CC=1)C1NC(=O)C2C=1C(=O)NC=2C1C=CC(C)=CC=1

> <Canonical_QSARr>
CC1C=CC(=CC=1)C1=NC(=O)C2C1C(=O)NC=2C1C=CC(C)=CC=1

> <InChI_Code_QSARr>
InChI=1S/C20H16N2O2/c1-11-3-7-13(8-4-11)17-15-16(20(24)21-17)18(22-19(15)23)14-9-5-12(2)6-10-14/h3-10,15H,1-2H3,(H,22,23)

> <InChI Key_QSARr>
HUWOQHCEBOJACU-UHFFFAOYSA-N

> <Salt_Solvent>


> <Salt_Solvent_ID>
0

> <Number of connected components>
1

$$$$
Molecule_811
  Mrv2316 01072400032D          

 21 22  0  0  0  0            999 V2000
    1.4289   -8.6428    0.0000 O   0  0  0  0  0  0  0  0  0  0  0  0
    1.4289   -7.8178    0.0000 S   0  0  0  0  0  0  0  0  0  0  0  0
    2.2539   -7.8178    0.0000 O   0  0  0  0  0  0  0  0  0  0  0  0
    0.6039   -7.8178    0.0000 O   0  0  0  0  0  0  0  0  0  0  0  0
    1.4289   -6.9928    0.0000 C   0  0  0  0  0  0  0  0  0  0  0  0
    2.1434   -6.5803    0.0000 C   0  0  0  0  0  0  0  0  0  0  0  0
    2.1434   -5.7553    0.0000 C   0  0  0  0  0  0  0  0  0  0  0  0
    1.4289   -5.3428    0.0000 C   0  0  0  0  0  0  0  0  0  0  0  0
    1.4289   -4.5178    0.0000 N   0  0  0  0  0  0  0  0  0  0  0  0
    2.1434   -4.1053    0.0000 C   0  0  0  0  0  0  0  0  0  0  0  0
    2.1434   -3.2803    0.0000 C   0  0  0  0  0  0  0  0  0  0  0  0
    2.8579   -2.8678    0.0000 C   0  0  0  0  0  0  0  0  0  0  0  0
    2.8579   -2.0428    0.0000 C   0  0  0  0  0  0  0  0  0  0  0  0
    3.5723   -1.6303    0.0000 N   0  0  0  0  0  0  0  0  0  0  0  0
    2.1434   -1.6303    0.0000 C   0  0  0  0  0  0  0  0  0  0  0  0
    2.1434   -0.8053    0.0000 C   0  0  0  0  0  0  0  0  0  0  0  0
    1.4289   -2.0428    0.0000 C   0  0  0  0  0  0  0  0  0  0  0  0
    1.4289   -2.8678    0.0000 C   0  0  0  0  0  0  0  0  0  0  0  0
    2.8579   -4.5178    0.0000 O   0  0  0  0  0  0  0  0  0  0  0  0
    0.7145   -5.7553    0.0000 C   0  0  0  0  0  0  0  0  0  0  0  0
    0.7145   -6.5803    0.0000 C   0  0  0  0  0  0  0  0  0  0  0  0
  1  2  1  0  0  0  0
  2  3  2  0  0  0  0
  2  4  2  0  0  0  0
  2  5  1  0  0  0  0
  6  5  2  0  0  0  0
  7  6  1  0  0  0  0
  8  7  2  0  0  0  0
  8  9  1  0  0  0  0
  9 10  1  0  0  0  0
 10 11  1  0  0  0  0
 12 11  2  0  0  0  0
 13 12  1  0  0  0  0
 13 14  1  0  0  0  0
 15 13  2  0  0  0  0
 15 16  1  0  0  0  0
 17 15  1  0  0  0  0
 18 17  2  0  0  0  0
 11 18  1  0  0  0  0
 10 19  2  0  0  0  0
 20  8  1  0  0  0  0
 21 20  2  0  0  0  0
  5 21  1  0  0  0  0
M  END
> <RowID>
811

> <Original_SMILES>
[Na+].CC1C=CC(=CC=1N)C(=O)NC1C=CC(=CC=1)S([O-])(=O)=O

> <Canonical_QSARr>
CC1C=CC(=CC=1N)C(=O)NC1C=CC(=CC=1)S(O)(=O)=O

> <InChI_Code_QSARr>
InChI=1S/C14H14N2O4S/c1-9-2-3-10(8-13(9)15)14(17)16-11-4-6-12(7-5-11)21(18,19)20/h2-8H,15H2,1H3,(H,16,17)(H,18,19,20)

> <InChI Key_QSARr>
JIPDTRLJBRHTRV-UHFFFAOYSA-N

> <Salt_Solvent>
[Na+]

> <Salt_Solvent_ID>
110

> <Number of connected components>
2

$$$$
Molecule_812
  Mrv2316 01072400032D          

 19 21  0  0  0  0            999 V2000
    0.0000   -1.6500    0.0000 C   0  0  0  0  0  0  0  0  0  0  0  0
   -0.7145   -1.2375    0.0000 C   0  0  0  0  0  0  0  0  0  0  0  0
   -0.7145   -0.4125    0.0000 P   0  0  0  0  0  0  0  0  0  0  0  0
   -1.4289   -0.0000    0.0000 C   0  0  0  0  0  0  0  0  0  0  0  0
   -1.4289    0.8250    0.0000 C   0  0  0  0  0  0  0  0  0  0  0  0
   -2.1434    1.2375    0.0000 C   0  0  0  0  0  0  0  0  0  0  0  0
   -2.8579    0.8250    0.0000 C   0  0  0  0  0  0  0  0  0  0  0  0
   -2.8579   -0.0000    0.0000 C   0  0  0  0  0  0  0  0  0  0  0  0
   -2.1434   -0.4125    0.0000 C   0  0  0  0  0  0  0  0  0  0  0  0
    0.0000    0.0000    0.0000 C   0  0  0  0  0  0  0  0  0  0  0  0
    0.7145   -0.4125    0.0000 C   0  0  0  0  0  0  0  0  0  0  0  0
    1.4289    0.0000    0.0000 C   0  0  0  0  0  0  0  0  0  0  0  0
    1.4289    0.8250    0.0000 C   0  0  0  0  0  0  0  0  0  0  0  0
    0.7145    1.2375    0.0000 C   0  0  0  0  0  0  0  0  0  0  0  0
    0.0000    0.8250    0.0000 C   0  0  0  0  0  0  0  0  0  0  0  0
   -1.4289   -1.6500    0.0000 C   0  0  0  0  0  0  0  0  0  0  0  0
   -1.4289   -2.4750    0.0000 C   0  0  0  0  0  0  0  0  0  0  0  0
   -0.7145   -2.8875    0.0000 C   0  0  0  0  0  0  0  0  0  0  0  0
    0.0000   -2.4750    0.0000 C   0  0  0  0  0  0  0  0  0  0  0  0
  2  1  1  0  0  0  0
  2  3  1  0  0  0  0
  3  4  1  0  0  0  0
  5  4  2  0  0  0  0
  6  5  1  0  0  0  0
  7  6  2  0  0  0  0
  8  7  1  0  0  0  0
  9  8  2  0  0  0  0
  4  9  1  0  0  0  0
  3 10  1  0  0  0  0
 11 10  2  0  0  0  0
 12 11  1  0  0  0  0
 13 12  2  0  0  0  0
 14 13  1  0  0  0  0
 15 14  2  0  0  0  0
 10 15  1  0  0  0  0
 16  2  2  0  0  0  0
 17 16  1  0  0  0  0
 18 17  2  0  0  0  0
 19 18  1  0  0  0  0
  1 19  2  0  0  0  0
M  END
> <RowID>
812

> <Original_SMILES>
[Cu].I.C1=CC=CC=C1P(C1C=CC=CC=1)C1C=CC=CC=1

> <Canonical_QSARr>
C1=CC=CC=C1P(C1C=CC=CC=1)C1C=CC=CC=1

> <InChI_Code_QSARr>
InChI=1S/C18H15P/c1-4-10-16(11-5-1)19(17-12-6-2-7-13-17)18-14-8-3-9-15-18/h1-15H

> <InChI Key_QSARr>
RIOQSEWOXXDEQQ-UHFFFAOYSA-N

> <Salt_Solvent>
[Cu].I

> <Salt_Solvent_ID>
410

> <Number of connected components>
3

$$$$
Molecule_813
  Mrv2316 01072400032D          

 21 21  0  0  0  0            999 V2000
   -1.6649   -2.2674    0.0000 C   0  0  0  0  0  0  0  0  0  0  0  0
   -1.3827   -1.4921    0.0000 C   0  0  0  0  0  0  0  0  0  0  0  0
   -2.1952   -1.3489    0.0000 C   0  0  0  0  0  0  0  0  0  0  0  0
   -0.6683   -1.9046    0.0000 C   0  0  0  0  0  0  0  0  0  0  0  0
    0.0462   -1.4921    0.0000 C   0  0  0  0  0  0  0  0  0  0  0  0
    0.7607   -1.9046    0.0000 C   0  0  0  0  0  0  0  0  0  0  0  0
    0.0462   -0.6671    0.0000 C   0  0  0  0  0  0  0  0  0  0  0  0
   -0.6683   -0.2546    0.0000 C   0  0  0  0  0  0  0  0  0  0  0  0
   -0.1380    0.3774    0.0000 O   0  0  0  0  0  0  0  0  0  0  0  0
    0.6745    0.2341    0.0000 O   0  0  0  0  0  0  0  0  0  0  0  0
    1.2048    0.8661    0.0000 C   0  0  0  0  0  0  0  0  0  0  0  0
    1.7351    1.4981    0.0000 C   0  0  0  0  0  0  0  0  0  0  0  0
    0.5728    1.3964    0.0000 C   0  0  0  0  0  0  0  0  0  0  0  0
    1.8368    0.3358    0.0000 C   0  0  0  0  0  0  0  0  0  0  0  0
   -1.1986    0.3774    0.0000 O   0  0  0  0  0  0  0  0  0  0  0  0
   -0.9164    1.1526    0.0000 O   0  0  0  0  0  0  0  0  0  0  0  0
   -1.4467    1.7846    0.0000 C   0  0  0  0  0  0  0  0  0  0  0  0
   -1.9770    2.4166    0.0000 C   0  0  0  0  0  0  0  0  0  0  0  0
   -0.8147    2.3149    0.0000 C   0  0  0  0  0  0  0  0  0  0  0  0
   -2.0787    1.2543    0.0000 C   0  0  0  0  0  0  0  0  0  0  0  0
   -1.3827   -0.6671    0.0000 C   0  0  0  0  0  0  0  0  0  0  0  0
  1  2  1  0  0  0  0
  2  3  1  0  0  0  0
  4  2  1  0  0  0  0
  5  4  1  0  0  0  0
  5  6  1  0  0  0  0
  7  5  1  0  0  0  0
  8  7  1  0  0  0  0
  8  9  1  0  0  0  0
  9 10  1  0  0  0  0
 10 11  1  0  0  0  0
 11 12  1  0  0  0  0
 11 13  1  0  0  0  0
 11 14  1  0  0  0  0
  8 15  1  0  0  0  0
 15 16  1  0  0  0  0
 16 17  1  0  0  0  0
 17 18  1  0  0  0  0
 17 19  1  0  0  0  0
 17 20  1  0  0  0  0
 21  8  1  0  0  0  0
  2 21  1  0  0  0  0
M  END
> <RowID>
813

> <Original_SMILES>
CC1(C)CC(C)CC(C1)(OOC(C)(C)C)OOC(C)(C)C

> <Canonical_QSARr>
CC1(C)CC(C)CC(C1)(OOC(C)(C)C)OOC(C)(C)C

> <InChI_Code_QSARr>
InChI=1S/C17H34O4/c1-13-10-16(8,9)12-17(11-13,20-18-14(2,3)4)21-19-15(5,6)7/h13H,10-12H2,1-9H3

> <InChI Key_QSARr>
NALFRYPTRXKZPN-UHFFFAOYSA-N

> <Salt_Solvent>


> <Salt_Solvent_ID>
0

> <Number of connected components>
1

$$$$
Molecule_814
  Mrv2316 01072400032D          

 15 16  0  0  0  0            999 V2000
    0.7145   -5.8575    0.0000 C   0  0  0  0  0  0  0  0  0  0  0  0
    0.7145   -5.0325    0.0000 C   0  0  0  0  0  0  0  0  0  0  0  0
    1.4289   -4.6200    0.0000 C   0  0  0  0  0  0  0  0  0  0  0  0
    1.4289   -3.7950    0.0000 C   0  0  0  0  0  0  0  0  0  0  0  0
    0.7145   -3.3825    0.0000 C   0  0  0  0  0  0  0  0  0  0  0  0
    0.7145   -2.5575    0.0000 C   0  0  0  0  0  0  0  0  0  0  0  0
    1.4289   -2.1450    0.0000 C   0  0  0  0  0  0  0  0  0  0  0  0
    1.4289   -1.3200    0.0000 C   0  0  0  0  0  0  0  0  0  0  0  0
    0.7145   -0.9075    0.0000 C   0  0  0  0  0  0  0  0  0  0  0  0
   -0.0000   -1.3200    0.0000 C   0  0  0  0  0  0  0  0  0  0  0  0
   -0.0000   -2.1450    0.0000 C   0  0  0  0  0  0  0  0  0  0  0  0
   -0.7145   -2.5575    0.0000 C   0  0  0  0  0  0  0  0  0  0  0  0
   -1.4289   -2.9700    0.0000 N   0  0  0  0  0  0  0  0  0  0  0  0
   -0.0000   -3.7950    0.0000 C   0  0  0  0  0  0  0  0  0  0  0  0
   -0.0000   -4.6200    0.0000 C   0  0  0  0  0  0  0  0  0  0  0  0
  1  2  1  0  0  0  0
  3  2  1  0  0  0  0
  4  3  2  0  0  0  0
  5  4  1  0  0  0  0
  5  6  1  0  0  0  0
  7  6  2  0  0  0  0
  8  7  1  0  0  0  0
  9  8  2  0  0  0  0
 10  9  1  0  0  0  0
 11 10  2  0  0  0  0
  6 11  1  0  0  0  0
 11 12  1  0  0  0  0
 12 13  3  0  0  0  0
 14  5  2  0  0  0  0
 15 14  1  0  0  0  0
  2 15  2  0  0  0  0
M  END
> <RowID>
814

> <Original_SMILES>
CC1C=CC(=CC=1)C1=CC=CC=C1C#N

> <Canonical_QSARr>
CC1C=CC(=CC=1)C1=CC=CC=C1C#N

> <InChI_Code_QSARr>
InChI=1S/C14H11N/c1-11-6-8-12(9-7-11)14-5-3-2-4-13(14)10-15/h2-9H,1H3

> <InChI Key_QSARr>
ZGQVZLSNEBEHFN-UHFFFAOYSA-N

> <Salt_Solvent>


> <Salt_Solvent_ID>
0

> <Number of connected components>
1

$$$$
Molecule_816
  Mrv2316 01072400032D          

 21 22  0  0  0  0            999 V2000
    2.2713   -2.1392    0.0000 C   0  0  0  0  0  0  0  0  0  0  0  0
    2.6838   -1.4247    0.0000 C   0  0  0  0  0  0  0  0  0  0  0  0
    3.3983   -1.8372    0.0000 C   0  0  0  0  0  0  0  0  0  0  0  0
    1.9693   -1.0122    0.0000 C   0  0  0  0  0  0  0  0  0  0  0  0
    3.0963   -0.7102    0.0000 O   0  0  0  0  0  0  0  0  0  0  0  0
    2.6838    0.0042    0.0000 C   0  0  0  0  0  0  0  0  0  0  0  0
    1.8588    0.0042    0.0000 O   0  0  0  0  0  0  0  0  0  0  0  0
    3.0963    0.7187    0.0000 C   0  0  0  0  0  0  0  0  0  0  0  0
    2.6838    1.4332    0.0000 C   0  0  0  0  0  0  0  0  0  0  0  0
    3.0963    2.1477    0.0000 C   0  0  0  0  0  0  0  0  0  0  0  0
    2.6838    2.8621    0.0000 C   0  0  0  0  0  0  0  0  0  0  0  0
    3.0963    3.5766    0.0000 C   0  0  0  0  0  0  0  0  0  0  0  0
    2.6838    4.2911    0.0000 C   0  0  0  0  0  0  0  0  0  0  0  0
    2.2713    5.0055    0.0000 N   0  0  0  0  0  0  0  0  0  0  0  0
    1.8588    2.8621    0.0000 O   0  0  0  0  0  0  0  0  0  0  0  0
    1.4463    2.1477    0.0000 C   0  0  0  0  0  0  0  0  0  0  0  0
    0.9614    2.8151    0.0000 C   0  0  0  0  0  0  0  0  0  0  0  0
    0.1768    2.5602    0.0000 C   0  0  0  0  0  0  0  0  0  0  0  0
    0.1768    1.7352    0.0000 C   0  0  0  0  0  0  0  0  0  0  0  0
    0.9614    1.4802    0.0000 C   0  0  0  0  0  0  0  0  0  0  0  0
    1.8588    1.4332    0.0000 O   0  0  0  0  0  0  0  0  0  0  0  0
  1  2  1  0  0  0  0
  2  3  1  0  0  0  0
  2  4  1  0  0  0  0
  2  5  1  0  0  0  0
  5  6  1  0  0  0  0
  6  7  2  0  0  0  0
  6  8  1  0  0  0  0
  8  9  1  0  0  0  0
 10  9  1  0  0  0  0
 11 10  1  0  0  0  0
 11 12  1  0  0  0  0
 12 13  1  0  0  0  0
 13 14  3  0  0  0  0
 15 11  1  0  0  0  0
 16 15  1  0  0  0  0
 17 16  1  0  0  0  0
 18 17  1  0  0  0  0
 19 18  1  0  0  0  0
 20 19  1  0  0  0  0
 16 20  1  0  0  0  0
 21 16  1  0  0  0  0
  9 21  1  0  0  0  0
M  END
> <RowID>
816

> <Original_SMILES>
CC(C)(C)OC(=O)CC1CC(CC#N)OC2(CCCC2)O1

> <Canonical_QSARr>
CC(C)(C)OC(=O)CC1CC(CC#N)OC2(CCCC2)O1

> <InChI_Code_QSARr>
InChI=1S/C16H25NO4/c1-15(2,3)21-14(18)11-13-10-12(6-9-17)19-16(20-13)7-4-5-8-16/h12-13H,4-8,10-11H2,1-3H3

> <InChI Key_QSARr>
JAWWSVNBVLYZPU-UHFFFAOYSA-N

> <Salt_Solvent>


> <Salt_Solvent_ID>
0

> <Number of connected components>
1

$$$$
Molecule_817
  Mrv2316 01072400032D          

 15 16  0  0  0  0            999 V2000
   -0.7145   -0.4125    0.0000 C   0  0  0  0  0  0  0  0  0  0  0  0
   -0.0000   -0.0000    0.0000 O   0  0  0  0  0  0  0  0  0  0  0  0
    0.7145   -0.4125    0.0000 C   0  0  0  0  0  0  0  0  0  0  0  0
    1.4289    0.0000    0.0000 C   0  0  0  0  0  0  0  0  0  0  0  0
    2.1434   -0.4125    0.0000 C   0  0  0  0  0  0  0  0  0  0  0  0
    2.8579    0.0000    0.0000 N   0  0  0  0  0  0  0  0  0  0  0  0
    3.5724   -0.4125    0.0000 C   0  0  0  0  0  0  0  0  0  0  0  0
    4.2868   -0.0000    0.0000 O   0  0  0  0  0  0  0  0  0  0  0  0
    3.5724   -1.2375    0.0000 C   0  0  0  0  0  0  0  0  0  0  0  0
    4.2868   -1.6500    0.0000 O   0  0  0  0  0  0  0  0  0  0  0  0
    2.8579   -1.6500    0.0000 N   0  0  0  0  0  0  0  0  0  0  0  0
    2.1434   -1.2375    0.0000 C   0  0  0  0  0  0  0  0  0  0  0  0
    1.4289   -1.6500    0.0000 C   0  0  0  0  0  0  0  0  0  0  0  0
    0.7145   -1.2375    0.0000 C   0  0  0  0  0  0  0  0  0  0  0  0
   -0.0000   -1.6500    0.0000 N   0  0  0  0  0  0  0  0  0  0  0  0
  1  2  1  0  0  0  0
  2  3  1  0  0  0  0
  4  3  2  0  0  0  0
  5  4  1  0  0  0  0
  5  6  1  0  0  0  0
  6  7  1  0  0  0  0
  7  8  2  0  0  0  0
  7  9  1  0  0  0  0
  9 10  2  0  0  0  0
  9 11  1  0  0  0  0
 11 12  1  0  0  0  0
 12  5  2  0  0  0  0
 13 12  1  0  0  0  0
 14 13  2  0  0  0  0
  3 14  1  0  0  0  0
 14 15  1  0  0  0  0
M  END
> <RowID>
817

> <Original_SMILES>
COC1=CC2NC(=O)C(=O)NC=2C=C1N

> <Canonical_QSARr>
COC1=CC2NC(=O)C(=O)NC=2C=C1N

> <InChI_Code_QSARr>
InChI=1S/C9H9N3O3/c1-15-7-3-6-5(2-4(7)10)11-8(13)9(14)12-6/h2-3H,10H2,1H3,(H,11,13)(H,12,14)

> <InChI Key_QSARr>
PGSBORVKPRJNHJ-UHFFFAOYSA-N

> <Salt_Solvent>


> <Salt_Solvent_ID>
0

> <Number of connected components>
1

$$$$
Molecule_818
  Mrv2316 01072400032D          

  7  6  0  0  0  0            999 V2000
   -0.1913    0.7146    0.0000 C   0  0  0  0  0  0  0  0  0  0  0  0
    0.5232    1.1271    0.0000 C   0  0  0  0  0  0  0  0  0  0  0  0
    1.2376    0.7146    0.0000 O   0  0  0  0  0  0  0  0  0  0  0  0
    1.9521    1.1271    0.0000 C   0  0  0  0  0  0  0  0  0  0  0  0
    1.9521    1.9521    0.0000 O   0  0  0  0  0  0  0  0  0  0  0  0
    2.6666    0.7146    0.0000 C   0  0  0  0  0  0  0  0  0  0  0  0
    3.3810    1.1271    0.0000 O   0  0  0  0  0  0  0  0  0  0  0  0
  1  2  1  0  0  0  0
  2  3  1  0  0  0  0
  3  4  1  0  0  0  0
  4  5  2  0  0  0  0
  4  6  1  0  0  0  0
  6  7  2  0  0  0  0
M  END
> <RowID>
818

> <Original_SMILES>
CCOC(=O)C=O

> <Canonical_QSARr>
CCOC(=O)C=O

> <InChI_Code_QSARr>
InChI=1S/C4H6O3/c1-2-7-4(6)3-5/h3H,2H2,1H3

> <InChI Key_QSARr>
DBPFRRFGLYGEJI-UHFFFAOYSA-N

> <Salt_Solvent>


> <Salt_Solvent_ID>
0

> <Number of connected components>
1

$$$$
Molecule_819
  Mrv2316 01072400032D          

 12 12  0  0  0  0            999 V2000
    2.2029   -0.5156    0.0000 C   0  0  0  0  0  0  0  0  0  0  0  0
    1.4885   -0.1031    0.0000 O   0  0  0  0  0  0  0  0  0  0  0  0
    1.4885    0.7219    0.0000 C   0  0  0  0  0  0  0  0  0  0  0  0
    2.2029    1.1344    0.0000 O   0  0  0  0  0  0  0  0  0  0  0  0
    0.7740    1.1344    0.0000 C   0  0  0  0  0  0  0  0  0  0  0  0
    0.7740    1.9594    0.0000 C   0  0  0  0  0  0  0  0  0  0  0  0
    0.0595    2.3719    0.0000 C   0  0  0  0  0  0  0  0  0  0  0  0
    0.0595    3.1969    0.0000 F   0  0  0  0  0  0  0  0  0  0  0  0
   -0.6549    1.9594    0.0000 C   0  0  0  0  0  0  0  0  0  0  0  0
   -0.6549    1.1344    0.0000 C   0  0  0  0  0  0  0  0  0  0  0  0
    0.0595    0.7219    0.0000 C   0  0  0  0  0  0  0  0  0  0  0  0
    0.0595   -0.1031    0.0000 N   0  0  0  0  0  0  0  0  0  0  0  0
  1  2  1  0  0  0  0
  2  3  1  0  0  0  0
  3  4  2  0  0  0  0
  3  5  1  0  0  0  0
  6  5  1  0  0  0  0
  7  6  2  0  0  0  0
  7  8  1  0  0  0  0
  9  7  1  0  0  0  0
 10  9  2  0  0  0  0
 11 10  1  0  0  0  0
  5 11  2  0  0  0  0
 11 12  1  0  0  0  0
M  END
> <RowID>
819

> <Original_SMILES>
COC(=O)C1C=C(F)C=CC=1N

> <Canonical_QSARr>
COC(=O)C1C=C(F)C=CC=1N

> <InChI_Code_QSARr>
InChI=1S/C8H8FNO2/c1-12-8(11)6-4-5(9)2-3-7(6)10/h2-4H,10H2,1H3

> <InChI Key_QSARr>
PUDDYSBKCDKATP-UHFFFAOYSA-N

> <Salt_Solvent>


> <Salt_Solvent_ID>
0

> <Number of connected components>
1

$$$$
Molecule_820
  Mrv2316 01072400032D          

 13 13  0  0  0  0            999 V2000
    1.8686    4.9500    0.0000 C   0  0  0  0  0  0  0  0  0  0  0  0
    1.1541    4.5375    0.0000 C   0  0  0  0  0  0  0  0  0  0  0  0
    1.1541    3.7125    0.0000 O   0  0  0  0  0  0  0  0  0  0  0  0
    0.4397    3.3000    0.0000 C   0  0  0  0  0  0  0  0  0  0  0  0
   -0.2748    3.7125    0.0000 O   0  0  0  0  0  0  0  0  0  0  0  0
    0.4397    2.4750    0.0000 C   0  0  0  0  0  0  0  0  0  0  0  0
   -0.2748    2.0625    0.0000 C   0  0  0  0  0  0  0  0  0  0  0  0
   -0.2748    1.2375    0.0000 C   0  0  0  0  0  0  0  0  0  0  0  0
   -0.9893    0.8250    0.0000 C   0  0  0  0  0  0  0  0  0  0  0  0
   -0.9893   -0.0000    0.0000 C   0  0  0  0  0  0  0  0  0  0  0  0
   -0.2748   -0.4125    0.0000 C   0  0  0  0  0  0  0  0  0  0  0  0
    0.4397    0.0000    0.0000 C   0  0  0  0  0  0  0  0  0  0  0  0
    0.4397    0.8250    0.0000 C   0  0  0  0  0  0  0  0  0  0  0  0
  1  2  1  0  0  0  0
  2  3  1  0  0  0  0
  3  4  1  0  0  0  0
  4  5  2  0  0  0  0
  6  4  1  4  0  0  0
  6  7  2  0  0  0  0
  7  8  1  0  0  0  0
  9  8  1  0  0  0  0
 10  9  2  0  0  0  0
 11 10  1  0  0  0  0
 12 11  2  0  0  0  0
 13 12  1  0  0  0  0
  8 13  2  0  0  0  0
M  END
> <RowID>
820

> <Original_SMILES>
CCOC(=O)C=CC1C=CC=CC=1

> <Canonical_QSARr>
CCOC(=O)C=CC1C=CC=CC=1

> <InChI_Code_QSARr>
InChI=1S/C11H12O2/c1-2-13-11(12)9-8-10-6-4-3-5-7-10/h3-9H,2H2,1H3

> <InChI Key_QSARr>
KBEBGUQPQBELIU-UHFFFAOYSA-N

> <Salt_Solvent>


> <Salt_Solvent_ID>
0

> <Number of connected components>
1

$$$$
Molecule_821
  Mrv2316 01072400032D          

  9  8  0  0  0  0            999 V2000
   -0.6039   -1.6500    0.0000 C   0  0  0  0  0  0  0  0  0  0  0  0
    0.1105   -1.2375    0.0000 C   0  0  0  0  0  0  0  0  0  0  0  0
    0.5230   -1.9520    0.0000 Cl  0  0  0  0  0  0  0  0  0  0  0  0
   -0.3020   -0.5230    0.0000 Cl  0  0  0  0  0  0  0  0  0  0  0  0
    0.8250   -0.8250    0.0000 C   0  0  0  0  0  0  0  0  0  0  0  0
    0.8250   -0.0000    0.0000 C   0  0  0  0  0  0  0  0  0  0  0  0
    0.8250    0.8250    0.0000 Cl  0  0  0  0  0  0  0  0  0  0  0  0
    1.6500   -0.0000    0.0000 Cl  0  0  0  0  0  0  0  0  0  0  0  0
   -0.0000   -0.0000    0.0000 Cl  0  0  0  0  0  0  0  0  0  0  0  0
  1  2  1  0  0  0  0
  2  3  1  0  0  0  0
  2  4  1  0  0  0  0
  2  5  1  0  0  0  0
  5  6  1  0  0  0  0
  6  7  1  0  0  0  0
  6  8  1  0  0  0  0
  6  9  1  0  0  0  0
M  END
> <RowID>
821

> <Original_SMILES>
CC(Cl)(Cl)CC(Cl)(Cl)Cl

> <Canonical_QSARr>
CC(Cl)(Cl)CC(Cl)(Cl)Cl

> <InChI_Code_QSARr>
InChI=1S/C4H5Cl5/c1-3(5,6)2-4(7,8)9/h2H2,1H3

> <InChI Key_QSARr>
FFBFEBDZFWMXBE-UHFFFAOYSA-N

> <Salt_Solvent>


> <Salt_Solvent_ID>
0

> <Number of connected components>
1

$$$$
Molecule_822
  Mrv2316 01072400032D          

  8  7  0  0  0  0            999 V2000
    1.2375    0.7145    0.0000 C   0  0  0  0  0  0  0  0  0  0  0  0
    0.8250    0.0000    0.0000 C   0  0  0  0  0  0  0  0  0  0  0  0
    1.2375   -0.7145    0.0000 C   0  0  0  0  0  0  0  0  0  0  0  0
   -0.0000    0.0000    0.0000 C   0  0  0  0  0  0  0  0  0  0  0  0
   -0.4125   -0.7145    0.0000 C   0  0  0  0  0  0  0  0  0  0  0  0
    0.0000   -1.4289    0.0000 O   0  0  0  0  0  0  0  0  0  0  0  0
   -1.2375   -0.7145    0.0000 O   0  0  0  0  0  0  0  0  0  0  0  0
   -1.6500   -1.4289    0.0000 C   0  0  0  0  0  0  0  0  0  0  0  0
  1  2  1  0  0  0  0
  2  3  1  0  0  0  0
  2  4  2  0  0  0  0
  4  5  1  0  0  0  0
  5  6  2  0  0  0  0
  5  7  1  0  0  0  0
  7  8  1  0  0  0  0
M  END
> <RowID>
822

> <Original_SMILES>
CC(C)=CC(=O)OC

> <Canonical_QSARr>
CC(C)=CC(=O)OC

> <InChI_Code_QSARr>
InChI=1S/C6H10O2/c1-5(2)4-6(7)8-3/h4H,1-3H3

> <InChI Key_QSARr>
FZIBCCGGICGWBP-UHFFFAOYSA-N

> <Salt_Solvent>


> <Salt_Solvent_ID>
0

> <Number of connected components>
1

$$$$
Molecule_823
  Mrv2316 01072400032D          

 12 12  0  0  0  0            999 V2000
   -0.7145   -1.1687    0.0000 C   0  0  0  0  0  0  0  0  0  0  0  0
   -0.0000   -0.7562    0.0000 C   0  0  0  0  0  0  0  0  0  0  0  0
   -0.0000    0.0688    0.0000 O   0  0  0  0  0  0  0  0  0  0  0  0
    0.7145    0.4813    0.0000 C   0  0  0  0  0  0  0  0  0  0  0  0
    1.4289    0.0687    0.0000 O   0  0  0  0  0  0  0  0  0  0  0  0
    0.7145    1.3063    0.0000 C   0  0  0  0  0  0  0  0  0  0  0  0
    1.4289    1.7188    0.0000 C   0  0  0  0  0  0  0  0  0  0  0  0
    1.4289    2.5438    0.0000 C   0  0  0  0  0  0  0  0  0  0  0  0
    0.7145    2.9562    0.0000 C   0  0  0  0  0  0  0  0  0  0  0  0
    0.7145    3.7813    0.0000 O   0  0  0  0  0  0  0  0  0  0  0  0
   -0.0000    2.5438    0.0000 C   0  0  0  0  0  0  0  0  0  0  0  0
   -0.0000    1.7188    0.0000 C   0  0  0  0  0  0  0  0  0  0  0  0
  1  2  1  0  0  0  0
  2  3  1  0  0  0  0
  3  4  1  0  0  0  0
  4  5  2  0  0  0  0
  4  6  1  0  0  0  0
  7  6  1  0  0  0  0
  8  7  2  0  0  0  0
  9  8  1  0  0  0  0
  9 10  1  0  0  0  0
 11  9  2  0  0  0  0
 12 11  1  0  0  0  0
  6 12  2  0  0  0  0
M  END
> <RowID>
823

> <Original_SMILES>
CCOC(=O)C1C=CC(O)=CC=1

> <Canonical_QSARr>
CCOC(=O)C1C=CC(O)=CC=1

> <InChI_Code_QSARr>
InChI=1S/C9H10O3/c1-2-12-9(11)7-3-5-8(10)6-4-7/h3-6,10H,2H2,1H3

> <InChI Key_QSARr>
NUVBSKCKDOMJSU-UHFFFAOYSA-N

> <Salt_Solvent>


> <Salt_Solvent_ID>
0

> <Number of connected components>
1

$$$$
Molecule_824
  Mrv2316 01072400032D          

 29 33  0  0  0  0            999 V2000
   -2.0721   -3.2395    0.0000 C   0  0  0  0  0  0  0  0  0  0  0  0
   -1.2600   -3.0943    0.0000 C   0  0  0  0  0  0  0  0  0  0  0  0
   -0.7282   -3.7250    0.0000 O   0  0  0  0  0  0  0  0  0  0  0  0
   -0.9797   -2.3184    0.0000 O   0  0  0  0  0  0  0  0  0  0  0  0
   -0.1676   -2.1731    0.0000 C   0  0  0  0  0  0  0  0  0  0  0  0
    0.1127   -1.3972    0.0000 C   0  0  0  0  0  0  0  0  0  0  0  0
   -0.4191   -0.7665    0.0000 O   0  0  0  0  0  0  0  0  0  0  0  0
    0.9249   -1.2520    0.0000 C   0  0  0  0  0  0  0  0  0  0  0  0
    0.9844   -2.0748    0.0000 O   0  0  0  0  0  0  0  0  0  0  0  0
    0.6955   -0.4595    0.0000 C   0  0  0  0  0  0  0  0  0  0  0  0
    1.3784    0.0035    0.0000 C   0  0  0  0  0  0  0  0  0  0  0  0
    2.0297   -0.5029    0.0000 C   0  0  0  0  0  0  0  0  0  0  0  0
    2.8418   -0.3577    0.0000 C   0  0  0  0  0  0  0  0  0  0  0  0
    3.1221    0.4183    0.0000 C   0  0  0  0  0  0  0  0  0  0  0  0
    3.9343    0.5635    0.0000 C   0  0  0  0  0  0  0  0  0  0  0  0
    4.4661   -0.0672    0.0000 C   0  0  0  0  0  0  0  0  0  0  0  0
    5.2782    0.0780    0.0000 C   0  0  0  0  0  0  0  0  0  0  0  0
    5.8100   -0.5527    0.0000 C   0  0  0  0  0  0  0  0  0  0  0  0
    6.6221   -0.4075    0.0000 O   0  0  0  0  0  0  0  0  0  0  0  0
    5.5297   -1.3287    0.0000 C   0  0  0  0  0  0  0  0  0  0  0  0
    4.7176   -1.4739    0.0000 C   0  0  0  0  0  0  0  0  0  0  0  0
    4.1858   -0.8432    0.0000 C   0  0  0  0  0  0  0  0  0  0  0  0
    4.4151   -1.6356    0.0000 C   0  0  0  0  0  0  0  0  0  0  0  0
    3.3737   -0.9884    0.0000 C   0  0  0  0  0  0  0  0  0  0  0  0
    3.9055   -1.6191    0.0000 O   0  0  0  0  0  0  0  0  0  0  0  0
    3.0934   -1.7643    0.0000 C   0  0  0  0  0  0  0  0  0  0  0  0
    2.2812   -1.9095    0.0000 C   0  0  0  0  0  0  0  0  0  0  0  0
    1.7494   -1.2788    0.0000 C   0  0  0  0  0  0  0  0  0  0  0  0
    1.3895   -2.0212    0.0000 C   0  0  0  0  0  0  0  0  0  0  0  0
  1  2  1  0  0  0  0
  2  3  2  0  0  0  0
  2  4  1  0  0  0  0
  4  5  1  0  0  0  0
  5  6  1  0  0  0  0
  6  7  2  0  0  0  0
  6  8  1  0  0  0  0
  8  9  1  0  0  0  0
 10  8  1  0  0  0  0
 11 10  1  0  0  0  0
 12 11  1  0  0  0  0
 12 13  1  0  0  0  0
 14 13  1  0  0  0  0
 15 14  1  0  0  0  0
 16 15  1  0  0  0  0
 16 17  2  0  0  0  0
 17 18  1  0  0  0  0
 18 19  2  0  0  0  0
 18 20  1  0  0  0  0
 20 21  2  0  0  0  0
 21 22  1  0  0  0  0
 22 16  1  0  0  0  0
 22 23  1  0  0  0  0
 24 22  1  0  0  0  0
 13 24  1  0  0  0  0
 25 24  1  0  0  0  0
 26 25  1  0  0  0  0
 24 26  1  0  0  0  0
 26 27  1  0  0  0  0
 27 28  1  0  0  0  0
  8 28  1  0  0  0  0
 28 12  1  0  0  0  0
 28 29  1  0  0  0  0
M  END
> <RowID>
824

> <Original_SMILES>
CC(=O)OCC(=O)C1(O)CCC2C3CCC4=CC(=O)C=CC4(C)C43OC4CC12C

> <Canonical_QSARr>
CC(=O)OCC(=O)C1(O)CCC2C3CCC4=CC(=O)C=CC4(C)C43OC4CC12C

> <InChI_Code_QSARr>
InChI=1S/C23H28O6/c1-13(24)28-12-18(26)22(27)9-7-16-17-5-4-14-10-15(25)6-8-20(14,2)23(17)19(29-23)11-21(16,22)3/h6,8,10,16-17,19,27H,4-5,7,9,11-12H2,1-3H3

> <InChI Key_QSARr>
DBNHODAAFAHQNY-UHFFFAOYSA-N

> <Salt_Solvent>


> <Salt_Solvent_ID>
0

> <Number of connected components>
1

$$$$
Molecule_825
  Mrv2316 01072400032D          

 34 37  0  0  0  0            999 V2000
   10.2594    9.6536    0.0000 N   0  0  0  0  0  0  0  0  0  0  0  0
   11.0663    9.8251    0.0000 C   0  0  0  0  0  0  0  0  0  0  0  0
   11.4019   10.5788    0.0000 O   0  0  0  0  0  0  0  0  0  0  0  0
   11.4788    9.1106    0.0000 C   0  0  0  0  0  0  0  0  0  0  0  0
   12.2325    8.7751    0.0000 C   0  0  0  0  0  0  0  0  0  0  0  0
   12.9470    9.1876    0.0000 C   0  0  0  0  0  0  0  0  0  0  0  0
   13.6615    8.7751    0.0000 C   0  0  0  0  0  0  0  0  0  0  0  0
   14.3759    9.1876    0.0000 C   0  0  0  0  0  0  0  0  0  0  0  0
   14.3759   10.0126    0.0000 C   0  0  0  0  0  0  0  0  0  0  0  0
   15.0904   10.4251    0.0000 Cl  0  0  0  0  0  0  0  0  0  0  0  0
   13.6615   10.4251    0.0000 C   0  0  0  0  0  0  0  0  0  0  0  0
   12.9470   10.0126    0.0000 C   0  0  0  0  0  0  0  0  0  0  0  0
   12.1463    7.9546    0.0000 N   0  0  0  0  0  0  0  0  0  0  0  0
   11.3393    7.7830    0.0000 C   0  0  0  0  0  0  0  0  0  0  0  0
   11.0038    7.0294    0.0000 O   0  0  0  0  0  0  0  0  0  0  0  0
   10.9268    8.4975    0.0000 C   0  0  0  0  0  0  0  0  0  0  0  0
   10.1731    8.8331    0.0000 C   0  0  0  0  0  0  0  0  0  0  0  0
    9.4587    8.4206    0.0000 C   0  0  0  0  0  0  0  0  0  0  0  0
    8.7442    8.8331    0.0000 C   0  0  0  0  0  0  0  0  0  0  0  0
    8.0297    8.4206    0.0000 C   0  0  0  0  0  0  0  0  0  0  0  0
    8.0297    7.5956    0.0000 C   0  0  0  0  0  0  0  0  0  0  0  0
    7.3153    7.1831    0.0000 C   0  0  0  0  0  0  0  0  0  0  0  0
    6.6008    7.5956    0.0000 O   0  0  0  0  0  0  0  0  0  0  0  0
    7.3153    6.3581    0.0000 N   0  0  0  0  0  0  0  0  0  0  0  0
    6.6008    5.9456    0.0000 C   0  0  0  0  0  0  0  0  0  0  0  0
    6.6008    5.1206    0.0000 C   0  0  0  0  0  0  0  0  0  0  0  0
    5.8863    4.7081    0.0000 C   0  0  0  0  0  0  0  0  0  0  0  0
    5.8863    3.8831    0.0000 C   0  0  0  0  0  0  0  0  0  0  0  0
    8.0297    5.9456    0.0000 C   0  0  0  0  0  0  0  0  0  0  0  0
    8.0297    5.1206    0.0000 C   0  0  0  0  0  0  0  0  0  0  0  0
    8.7442    4.7081    0.0000 C   0  0  0  0  0  0  0  0  0  0  0  0
    8.7442    3.8831    0.0000 C   0  0  0  0  0  0  0  0  0  0  0  0
    8.7442    7.1831    0.0000 C   0  0  0  0  0  0  0  0  0  0  0  0
    9.4587    7.5956    0.0000 C   0  0  0  0  0  0  0  0  0  0  0  0
  2  1  1  0  0  0  0
  2  3  2  0  0  0  0
  4  2  1  0  0  0  0
  4  5  2  0  0  0  0
  5  6  1  0  0  0  0
  7  6  1  0  0  0  0
  8  7  2  0  0  0  0
  9  8  1  0  0  0  0
  9 10  1  0  0  0  0
 11  9  2  0  0  0  0
 12 11  1  0  0  0  0
  6 12  2  0  0  0  0
  5 13  1  0  0  0  0
 13 14  1  0  0  0  0
 14 15  2  0  0  0  0
 14 16  1  0  0  0  0
 16  4  1  0  0  0  0
 17 16  1  0  0  0  0
  1 17  2  0  0  0  0
 17 18  1  0  0  0  0
 19 18  1  0  0  0  0
 20 19  2  0  0  0  0
 21 20  1  0  0  0  0
 21 22  1  0  0  0  0
 22 23  2  0  0  0  0
 22 24  1  0  0  0  0
 24 25  1  0  0  0  0
 25 26  1  0  0  0  0
 26 27  1  0  0  0  0
 27 28  1  0  0  0  0
 24 29  1  0  0  0  0
 29 30  1  0  0  0  0
 30 31  1  0  0  0  0
 31 32  1  0  0  0  0
 33 21  2  0  0  0  0
 34 33  1  0  0  0  0
 18 34  2  0  0  0  0
M  END
> <RowID>
825

> <Original_SMILES>
CCCCN(CCCC)C(=O)C1C=CC(=CC=1)C1NC(=O)C2C=1C(=O)NC=2C1C=CC(Cl)=CC=1

> <Canonical_QSARr>
CCCCN(CCCC)C(=O)C1C=CC(=CC=1)C1=NC(=O)C2C1C(=O)NC=2C1C=CC(Cl)=CC=1

> <InChI_Code_QSARr>
InChI=1S/C27H28ClN3O3/c1-3-5-15-31(16-6-4-2)27(34)19-9-7-17(8-10-19)23-21-22(26(33)29-23)24(30-25(21)32)18-11-13-20(28)14-12-18/h7-14,21H,3-6,15-16H2,1-2H3,(H,30,32)

> <InChI Key_QSARr>
JVXNCZPSBBGDBW-UHFFFAOYSA-N

> <Salt_Solvent>


> <Salt_Solvent_ID>
0

> <Number of connected components>
1

$$$$
Molecule_826
  Mrv2316 01072400032D          

 17 16  0  0  0  0            999 V2000
    2.2836   -2.9684    0.0000 N   0  0  0  0  0  0  0  0  0  0  0  0
    2.9980   -3.3809    0.0000 C   0  0  0  0  0  0  0  0  0  0  0  0
    3.7125   -3.7934    0.0000 C   0  0  0  0  0  0  0  0  0  0  0  0
    4.4270   -3.3809    0.0000 N   0  0  0  0  0  0  0  0  0  0  0  0
    4.4270   -2.5559    0.0000 C   0  0  0  0  0  0  0  0  0  0  0  0
    3.7125   -2.1434    0.0000 C   0  0  0  0  0  0  0  0  0  0  0  0
    2.9980   -1.7309    0.0000 N   0  0  0  0  0  0  0  0  0  0  0  0
    5.1414   -3.7934    0.0000 C   0  0  0  0  0  0  0  0  0  0  0  0
    5.8559   -3.3809    0.0000 C   0  0  0  0  0  0  0  0  0  0  0  0
    6.5704   -3.7934    0.0000 C   0  0  0  0  0  0  0  0  0  0  0  0
    7.2849   -3.3809    0.0000 N   0  0  0  0  0  0  0  0  0  0  0  0
    7.9993   -3.7934    0.0000 C   0  0  0  0  0  0  0  0  0  0  0  0
    8.7138   -3.3809    0.0000 C   0  0  0  0  0  0  0  0  0  0  0  0
    9.4283   -2.9684    0.0000 N   0  0  0  0  0  0  0  0  0  0  0  0
    7.2849   -2.5559    0.0000 C   0  0  0  0  0  0  0  0  0  0  0  0
    7.9993   -2.1434    0.0000 C   0  0  0  0  0  0  0  0  0  0  0  0
    8.7138   -1.7309    0.0000 N   0  0  0  0  0  0  0  0  0  0  0  0
  1  2  3  0  0  0  0
  2  3  1  0  0  0  0
  3  4  1  0  0  0  0
  4  5  1  0  0  0  0
  5  6  1  0  0  0  0
  6  7  3  0  0  0  0
  4  8  1  0  0  0  0
  8  9  1  0  0  0  0
  9 10  1  0  0  0  0
 10 11  1  0  0  0  0
 11 12  1  0  0  0  0
 12 13  1  0  0  0  0
 13 14  3  0  0  0  0
 11 15  1  0  0  0  0
 15 16  1  0  0  0  0
 16 17  3  0  0  0  0
M  END
> <RowID>
826

> <Original_SMILES>
N#CCN(CC#N)CCCN(CC#N)CC#N

> <Canonical_QSARr>
N#CCN(CC#N)CCCN(CC#N)CC#N

> <InChI_Code_QSARr>
InChI=1S/C11H14N6/c12-2-8-16(9-3-13)6-1-7-17(10-4-14)11-5-15/h1,6-11H2

> <InChI Key_QSARr>
KSCJDIGKTDTGDE-UHFFFAOYSA-N

> <Salt_Solvent>


> <Salt_Solvent_ID>
0

> <Number of connected components>
1

$$$$
Molecule_827
  Mrv2316 01072400032D          

 50 53  0  0  0  0            999 V2000
    1.4004   -9.9000    0.0000 C   0  0  0  0  0  0  0  0  0  0  0  0
    1.4004   -9.0750    0.0000 C   0  0  0  0  0  0  0  0  0  0  0  0
    0.6859   -8.6625    0.0000 O   0  0  0  0  0  0  0  0  0  0  0  0
    2.1148   -8.6625    0.0000 C   0  0  0  0  0  0  0  0  0  0  0  0
    2.1148   -7.8375    0.0000 N   0  0  0  0  0  0  0  0  0  0  0  0
    2.8293   -7.4250    0.0000 N   0  0  0  0  0  0  0  0  0  0  0  0
    2.8293   -6.6000    0.0000 C   0  0  0  0  0  0  0  0  0  0  0  0
    3.5438   -6.1875    0.0000 C   0  0  0  0  0  0  0  0  0  0  0  0
    3.5438   -5.3625    0.0000 C   0  0  0  0  0  0  0  0  0  0  0  0
    2.8293   -4.9500    0.0000 C   0  0  0  0  0  0  0  0  0  0  0  0
    2.8293   -4.1250    0.0000 C   0  0  0  0  0  0  0  0  0  0  0  0
    3.5438   -3.7125    0.0000 C   0  0  0  0  0  0  0  0  0  0  0  0
    3.5438   -2.8875    0.0000 C   0  0  0  0  0  0  0  0  0  0  0  0
    4.2583   -2.4750    0.0000 Cl  0  0  0  0  0  0  0  0  0  0  0  0
    2.8293   -2.4750    0.0000 C   0  0  0  0  0  0  0  0  0  0  0  0
    2.8293   -1.6500    0.0000 N   0  0  0  0  0  0  0  0  0  0  0  0
    3.5438   -1.2375    0.0000 N   0  0  0  0  0  0  0  0  0  0  0  0
    3.5438   -0.4125    0.0000 C   0  0  0  0  0  0  0  0  0  0  0  0
    4.2583    0.0000    0.0000 C   0  0  0  0  0  0  0  0  0  0  0  0
    4.9727   -0.4125    0.0000 O   0  0  0  0  0  0  0  0  0  0  0  0
    4.2583    0.8250    0.0000 N   0  0  0  0  0  0  0  0  0  0  0  0
    4.9727    1.2375    0.0000 C   0  0  0  0  0  0  0  0  0  0  0  0
    5.6872    0.8250    0.0000 C   0  0  0  0  0  0  0  0  0  0  0  0
    6.4017    1.2375    0.0000 C   0  0  0  0  0  0  0  0  0  0  0  0
    6.4017    2.0625    0.0000 C   0  0  0  0  0  0  0  0  0  0  0  0
    7.1161    2.4750    0.0000 O   0  0  0  0  0  0  0  0  0  0  0  0
    7.1161    3.3000    0.0000 C   0  0  0  0  0  0  0  0  0  0  0  0
    7.8306    3.7125    0.0000 C   0  0  0  0  0  0  0  0  0  0  0  0
    5.6872    2.4750    0.0000 C   0  0  0  0  0  0  0  0  0  0  0  0
    4.9727    2.0625    0.0000 C   0  0  0  0  0  0  0  0  0  0  0  0
    2.8293    0.0000    0.0000 C   0  0  0  0  0  0  0  0  0  0  0  0
    2.1148   -0.4125    0.0000 C   0  0  0  0  0  0  0  0  0  0  0  0
    2.8293    0.8250    0.0000 O   0  0  0  0  0  0  0  0  0  0  0  0
    2.1148   -2.8875    0.0000 C   0  0  0  0  0  0  0  0  0  0  0  0
    2.1148   -3.7125    0.0000 C   0  0  0  0  0  0  0  0  0  0  0  0
    2.1148   -5.3625    0.0000 C   0  0  0  0  0  0  0  0  0  0  0  0
    2.1148   -6.1875    0.0000 C   0  0  0  0  0  0  0  0  0  0  0  0
    1.4004   -6.6000    0.0000 Cl  0  0  0  0  0  0  0  0  0  0  0  0
    2.8293   -9.0750    0.0000 C   0  0  0  0  0  0  0  0  0  0  0  0
    3.5438   -8.6625    0.0000 O   0  0  0  0  0  0  0  0  0  0  0  0
    2.8293   -9.9000    0.0000 N   0  0  0  0  0  0  0  0  0  0  0  0
    3.5438  -10.3125    0.0000 C   0  0  0  0  0  0  0  0  0  0  0  0
    3.5438  -11.1375    0.0000 C   0  0  0  0  0  0  0  0  0  0  0  0
    4.2583  -11.5500    0.0000 C   0  0  0  0  0  0  0  0  0  0  0  0
    4.9727  -11.1375    0.0000 C   0  0  0  0  0  0  0  0  0  0  0  0
    5.6872  -11.5500    0.0000 O   0  0  0  0  0  0  0  0  0  0  0  0
    5.6872  -12.3750    0.0000 C   0  0  0  0  0  0  0  0  0  0  0  0
    6.4017  -12.7875    0.0000 C   0  0  0  0  0  0  0  0  0  0  0  0
    4.9727  -10.3125    0.0000 C   0  0  0  0  0  0  0  0  0  0  0  0
    4.2583   -9.9000    0.0000 C   0  0  0  0  0  0  0  0  0  0  0  0
  1  2  1  0  0  0  0
  2  3  2  0  0  0  0
  2  4  1  0  0  0  0
  5  4  1  4  0  0  0
  5  6  2  0  0  0  0
  6  7  1  0  0  0  0
  8  7  2  0  0  0  0
  9  8  1  0  0  0  0
 10  9  2  0  0  0  0
 10 11  1  0  0  0  0
 12 11  1  0  0  0  0
 13 12  2  0  0  0  0
 13 14  1  0  0  0  0
 15 13  1  0  0  0  0
 16 15  1  4  0  0  0
 16 17  2  0  0  0  0
 17 18  1  0  0  0  0
 18 19  1  0  0  0  0
 19 20  2  0  0  0  0
 19 21  1  0  0  0  0
 21 22  1  0  0  0  0
 23 22  1  0  0  0  0
 24 23  2  0  0  0  0
 25 24  1  0  0  0  0
 25 26  1  0  0  0  0
 26 27  1  0  0  0  0
 27 28  1  0  0  0  0
 29 25  2  0  0  0  0
 30 29  1  0  0  0  0
 22 30  2  0  0  0  0
 18 31  1  0  0  0  0
 31 32  1  0  0  0  0
 31 33  2  0  0  0  0
 34 15  2  0  0  0  0
 35 34  1  0  0  0  0
 11 35  2  0  0  0  0
 36 10  1  0  0  0  0
 37 36  2  0  0  0  0
  7 37  1  0  0  0  0
 37 38  1  0  0  0  0
  4 39  1  0  0  0  0
 39 40  2  0  0  0  0
 39 41  1  0  0  0  0
 41 42  1  0  0  0  0
 43 42  1  0  0  0  0
 44 43  2  0  0  0  0
 45 44  1  0  0  0  0
 45 46  1  0  0  0  0
 46 47  1  0  0  0  0
 47 48  1  0  0  0  0
 49 45  2  0  0  0  0
 50 49  1  0  0  0  0
 42 50  2  0  0  0  0
M  END
> <RowID>
827

> <Original_SMILES>
CC(=O)C(N=NC1=CC=C(C=C1Cl)C1C=C(Cl)C(=CC=1)N=NC(C(=O)NC1C=CC(=CC=1)OCC)C(C)=O)C(=O)NC1C=CC(=CC=1)OCC

> <Canonical_QSARr>
CC(=O)C(N=NC1=CC=C(C=C1Cl)C1C=C(Cl)C(=CC=1)N=NC(C(=O)NC1C=CC(=CC=1)OCC)C(C)=O)C(=O)NC1C=CC(=CC=1)OCC

> <InChI_Code_QSARr>
InChI=1S/C36H34Cl2N6O6/c1-5-49-27-13-9-25(10-14-27)39-35(47)33(21(3)45)43-41-31-17-7-23(19-29(31)37)24-8-18-32(30(38)20-24)42-44-34(22(4)46)36(48)40-26-11-15-28(16-12-26)50-6-2/h7-20,33-34H,5-6H2,1-4H3,(H,39,47)(H,40,48)

> <InChI Key_QSARr>
LNBRYDZEIVHGHO-UHFFFAOYSA-N

> <Salt_Solvent>


> <Salt_Solvent_ID>
0

> <Number of connected components>
1

$$$$
Molecule_828
  Mrv2316 01072400032D          

 11 11  0  0  0  0            999 V2000
   -1.3640    1.1625    0.0000 C   0  0  0  0  0  0  0  0  0  0  0  0
   -0.6495    0.7500    0.0000 N   0  0  0  0  0  0  0  0  0  0  0  0
   -0.6495   -0.0750    0.0000 C   0  0  0  0  0  0  0  0  0  0  0  0
    0.0650   -0.4875    0.0000 O   0  0  0  0  0  0  0  0  0  0  0  0
    0.7794   -0.0750    0.0000 C   0  0  0  0  0  0  0  0  0  0  0  0
    0.7794    0.7500    0.0000 N   0  0  0  0  0  0  0  0  0  0  0  0
    0.0650    1.1625    0.0000 C   0  0  0  0  0  0  0  0  0  0  0  0
    0.0650    1.9875    0.0000 N   0  0  0  0  0  0  0  0  0  0  0  0
    0.7794    2.4000    0.0000 N   0  3  0  0  0  0  0  0  0  0  0  0
    0.7794    3.2250    0.0000 O   0  5  0  0  0  0  0  0  0  0  0  0
    1.4939    1.9875    0.0000 O   0  0  0  0  0  0  0  0  0  0  0  0
  1  2  1  0  0  0  0
  3  2  1  0  0  0  0
  4  3  1  0  0  0  0
  5  4  1  0  0  0  0
  6  5  1  0  0  0  0
  7  6  2  0  0  0  0
  2  7  1  0  0  0  0
  7  8  1  0  0  0  0
  8  9  1  0  0  0  0
  9 10  1  0  0  0  0
  9 11  2  0  0  0  0
M  CHG  2   9   1  10  -1
M  END
> <RowID>
828

> <Original_SMILES>
CN1COCN=C1N[N+]([O-])=O

> <Canonical_QSARr>
CN1COCN=C1N[N+]([O-])=O

> <InChI_Code_QSARr>
InChI=1S/C4H8N4O3/c1-7-3-11-2-5-4(7)6-8(9)10/h2-3H2,1H3,(H,5,6)

> <InChI Key_QSARr>
GAYLOVDFGKQKCJ-UHFFFAOYSA-N

> <Salt_Solvent>


> <Salt_Solvent_ID>
0

> <Number of connected components>
1

$$$$
Molecule_829
  Mrv2316 01072400032D          

 19 18  0  0  0  0            999 V2000
    7.6059    6.7556    0.0000 O   0  0  0  0  0  0  0  0  0  0  0  0
    6.7957    6.5997    0.0000 C   0  0  0  0  0  0  0  0  0  0  0  0
    6.2556    7.2234    0.0000 O   0  0  0  0  0  0  0  0  0  0  0  0
    6.5257    5.8202    0.0000 C   0  0  0  0  0  0  0  0  0  0  0  0
    5.7155    5.6643    0.0000 C   0  0  0  0  0  0  0  0  0  0  0  0
    5.4455    4.8847    0.0000 N   0  0  0  0  0  0  0  0  0  0  0  0
    4.6354    4.7288    0.0000 C   0  0  0  0  0  0  0  0  0  0  0  0
    4.3653    3.9493    0.0000 C   0  0  0  0  0  0  0  0  0  0  0  0
    3.5552    3.7933    0.0000 C   0  0  0  0  0  0  0  0  0  0  0  0
    3.2851    3.0138    0.0000 C   0  0  0  0  0  0  0  0  0  0  0  0
    2.4750    2.8579    0.0000 C   0  0  0  0  0  0  0  0  0  0  0  0
    2.2050    2.0783    0.0000 C   0  0  0  0  0  0  0  0  0  0  0  0
    4.9054    3.3256    0.0000 C   0  0  0  0  0  0  0  0  0  0  0  0
    4.6354    2.5461    0.0000 C   0  0  0  0  0  0  0  0  0  0  0  0
    5.9856    4.2611    0.0000 C   0  0  0  0  0  0  0  0  0  0  0  0
    5.7155    3.4815    0.0000 C   0  0  0  0  0  0  0  0  0  0  0  0
    6.2556    2.8579    0.0000 C   0  0  0  0  0  0  0  0  0  0  0  0
    7.0658    3.0138    0.0000 O   0  0  0  0  0  0  0  0  0  0  0  0
    5.9856    2.0783    0.0000 O   0  0  0  0  0  0  0  0  0  0  0  0
  1  2  1  0  0  0  0
  2  3  2  0  0  0  0
  2  4  1  0  0  0  0
  4  5  1  0  0  0  0
  5  6  1  0  0  0  0
  6  7  1  0  0  0  0
  7  8  1  0  0  0  0
  8  9  1  0  0  0  0
  9 10  1  0  0  0  0
 10 11  1  0  0  0  0
 11 12  1  0  0  0  0
  8 13  1  0  0  0  0
 13 14  1  0  0  0  0
  6 15  1  0  0  0  0
 15 16  1  0  0  0  0
 16 17  1  0  0  0  0
 17 18  2  0  0  0  0
 17 19  1  0  0  0  0
M  END
> <RowID>
829

> <Original_SMILES>
[Na+].CCCCC(CN(CCC(O)=O)CCC([O-])=O)CC

> <Canonical_QSARr>
CCCCC(CN(CCC(O)=O)CCC(O)=O)CC

> <InChI_Code_QSARr>
InChI=1S/C14H27NO4/c1-3-5-6-12(4-2)11-15(9-7-13(16)17)10-8-14(18)19/h12H,3-11H2,1-2H3,(H,16,17)(H,18,19)

> <InChI Key_QSARr>
OAHNQUKKWVAYGR-UHFFFAOYSA-N

> <Salt_Solvent>
[Na+]

> <Salt_Solvent_ID>
110

> <Number of connected components>
2

$$$$
Molecule_830
  Mrv2316 01072400032D          

 42 47  0  0  0  0            999 V2000
   -0.6486    1.5695    0.0000 O   0  0  0  0  0  0  0  0  0  0  0  0
    0.1584    1.3980    0.0000 P   0  0  0  0  0  0  0  0  0  0  0  0
   -0.0132    0.5910    0.0000 O   0  0  0  0  0  0  0  0  0  0  0  0
   -0.7978    0.3361    0.0000 C   0  0  0  0  0  0  0  0  0  0  0  0
   -1.4109    0.8881    0.0000 C   0  0  0  0  0  0  0  0  0  0  0  0
   -2.1955    0.6332    0.0000 C   0  0  0  0  0  0  0  0  0  0  0  0
   -2.3670   -0.1738    0.0000 C   0  0  0  0  0  0  0  0  0  0  0  0
   -1.7539   -0.7258    0.0000 C   0  0  0  0  0  0  0  0  0  0  0  0
   -0.9693   -0.4709    0.0000 C   0  0  0  0  0  0  0  0  0  0  0  0
    0.3299    2.2050    0.0000 O   0  0  0  0  0  0  0  0  0  0  0  0
   -0.2832    2.7570    0.0000 C   0  0  0  0  0  0  0  0  0  0  0  0
   -0.1117    3.5640    0.0000 C   0  0  0  0  0  0  0  0  0  0  0  0
   -0.7248    4.1160    0.0000 C   0  0  0  0  0  0  0  0  0  0  0  0
   -1.5094    3.8611    0.0000 C   0  0  0  0  0  0  0  0  0  0  0  0
   -1.6809    3.0541    0.0000 C   0  0  0  0  0  0  0  0  0  0  0  0
   -1.0678    2.5021    0.0000 C   0  0  0  0  0  0  0  0  0  0  0  0
    0.9653    1.2265    0.0000 O   0  0  0  0  0  0  0  0  0  0  0  0
    1.2203    0.4419    0.0000 C   0  0  0  0  0  0  0  0  0  0  0  0
    0.7354   -0.2256    0.0000 C   0  0  0  0  0  0  0  0  0  0  0  0
    1.2203   -0.8930    0.0000 O   0  0  0  0  0  0  0  0  0  0  0  0
    2.0049   -0.6381    0.0000 C   0  0  0  0  0  0  0  0  0  0  0  0
    2.0049    0.1869    0.0000 C   0  0  0  0  0  0  0  0  0  0  0  0
    2.7895    0.4419    0.0000 O   0  0  0  0  0  0  0  0  0  0  0  0
    3.2744   -0.2256    0.0000 C   0  0  0  0  0  0  0  0  0  0  0  0
    2.7895   -0.8930    0.0000 C   0  0  0  0  0  0  0  0  0  0  0  0
    3.0445   -1.6776    0.0000 O   0  0  0  0  0  0  0  0  0  0  0  0
    2.4924   -2.2907    0.0000 P   0  0  0  0  0  0  0  0  0  0  0  0
    1.8793   -1.7387    0.0000 O   0  0  0  0  0  0  0  0  0  0  0  0
    1.9404   -2.9038    0.0000 O   0  0  0  0  0  0  0  0  0  0  0  0
    1.1334   -2.7323    0.0000 C   0  0  0  0  0  0  0  0  0  0  0  0
    0.8785   -1.9477    0.0000 C   0  0  0  0  0  0  0  0  0  0  0  0
    0.0715   -1.7762    0.0000 C   0  0  0  0  0  0  0  0  0  0  0  0
   -0.4805   -2.3893    0.0000 C   0  0  0  0  0  0  0  0  0  0  0  0
   -0.2256   -3.1739    0.0000 C   0  0  0  0  0  0  0  0  0  0  0  0
    0.5814   -3.3454    0.0000 C   0  0  0  0  0  0  0  0  0  0  0  0
    3.1055   -2.8428    0.0000 O   0  0  0  0  0  0  0  0  0  0  0  0
    2.9340   -3.6497    0.0000 C   0  0  0  0  0  0  0  0  0  0  0  0
    2.1494   -3.9047    0.0000 C   0  0  0  0  0  0  0  0  0  0  0  0
    1.9778   -4.7117    0.0000 C   0  0  0  0  0  0  0  0  0  0  0  0
    2.5909   -5.2637    0.0000 C   0  0  0  0  0  0  0  0  0  0  0  0
    3.3756   -5.0088    0.0000 C   0  0  0  0  0  0  0  0  0  0  0  0
    3.5471   -4.2018    0.0000 C   0  0  0  0  0  0  0  0  0  0  0  0
  1  2  2  0  0  0  0
  2  3  1  0  0  0  0
  3  4  1  0  0  0  0
  5  4  1  0  0  0  0
  6  5  2  0  0  0  0
  7  6  1  0  0  0  0
  8  7  2  0  0  0  0
  9  8  1  0  0  0  0
  4  9  2  0  0  0  0
  2 10  1  0  0  0  0
 10 11  1  0  0  0  0
 12 11  1  0  0  0  0
 13 12  2  0  0  0  0
 14 13  1  0  0  0  0
 15 14  2  0  0  0  0
 16 15  1  0  0  0  0
 11 16  2  0  0  0  0
  2 17  1  0  0  0  0
 17 18  1  0  0  0  0
 19 18  1  0  0  0  0
 20 19  1  0  0  0  0
 21 20  1  0  0  0  0
 21 22  1  0  0  0  0
 18 22  1  0  0  0  0
 22 23  1  0  0  0  0
 23 24  1  0  0  0  0
 24 25  1  0  0  0  0
 25 21  1  0  0  0  0
 25 26  1  0  0  0  0
 26 27  1  0  0  0  0
 27 28  2  0  0  0  0
 27 29  1  0  0  0  0
 29 30  1  0  0  0  0
 31 30  1  0  0  0  0
 32 31  2  0  0  0  0
 33 32  1  0  0  0  0
 34 33  2  0  0  0  0
 35 34  1  0  0  0  0
 30 35  2  0  0  0  0
 27 36  1  0  0  0  0
 36 37  1  0  0  0  0
 38 37  1  0  0  0  0
 39 38  2  0  0  0  0
 40 39  1  0  0  0  0
 41 40  2  0  0  0  0
 42 41  1  0  0  0  0
 37 42  2  0  0  0  0
M  END
> <RowID>
830

> <Original_SMILES>
O=P(OC1C=CC=CC=1)(OC1C=CC=CC=1)OC1COC2C1OCC2OP(=O)(OC1C=CC=CC=1)OC1C=CC=CC=1

> <Canonical_QSARr>
O=P(OC1C=CC=CC=1)(OC1C=CC=CC=1)OC1COC2C1OCC2OP(=O)(OC1C=CC=CC=1)OC1C=CC=CC=1

> <InChI_Code_QSARr>
InChI=1S/C30H28O10P2/c31-41(35-23-13-5-1-6-14-23,36-24-15-7-2-8-16-24)39-27-21-33-30-28(22-34-29(27)30)40-42(32,37-25-17-9-3-10-18-25)38-26-19-11-4-12-20-26/h1-20,27-30H,21-22H2

> <InChI Key_QSARr>
KZGIAKZTZNBGFA-UHFFFAOYSA-N

> <Salt_Solvent>


> <Salt_Solvent_ID>
0

> <Number of connected components>
1

$$$$
Molecule_831
  Mrv2316 01072400032D          

 10 10  0  0  0  0            999 V2000
   -0.3572    2.2688    0.0000 N   0  0  0  0  0  0  0  0  0  0  0  0
   -0.3572    1.4438    0.0000 C   0  0  0  0  0  0  0  0  0  0  0  0
   -1.0717    1.0313    0.0000 O   0  0  0  0  0  0  0  0  0  0  0  0
    0.3572    1.0313    0.0000 C   0  0  0  0  0  0  0  0  0  0  0  0
    0.3572    0.2062    0.0000 C   0  0  0  0  0  0  0  0  0  0  0  0
    1.0717   -0.2063    0.0000 C   0  0  0  0  0  0  0  0  0  0  0  0
    1.7862    0.2062    0.0000 C   0  0  0  0  0  0  0  0  0  0  0  0
    1.7862    1.0312    0.0000 C   0  0  0  0  0  0  0  0  0  0  0  0
    1.0717    1.4437    0.0000 C   0  0  0  0  0  0  0  0  0  0  0  0
    1.0717    2.2687    0.0000 Cl  0  0  0  0  0  0  0  0  0  0  0  0
  1  2  1  0  0  0  0
  2  3  2  0  0  0  0
  2  4  1  0  0  0  0
  5  4  2  0  0  0  0
  6  5  1  0  0  0  0
  7  6  2  0  0  0  0
  8  7  1  0  0  0  0
  9  8  2  0  0  0  0
  4  9  1  0  0  0  0
  9 10  1  0  0  0  0
M  END
> <RowID>
831

> <Original_SMILES>
NC(=O)C1=CC=CC=C1Cl

> <Canonical_QSARr>
NC(=O)C1=CC=CC=C1Cl

> <InChI_Code_QSARr>
InChI=1S/C7H6ClNO/c8-6-4-2-1-3-5(6)7(9)10/h1-4H,(H2,9,10)

> <InChI Key_QSARr>
RBGDLYUEXLWQBZ-UHFFFAOYSA-N

> <Salt_Solvent>


> <Salt_Solvent_ID>
0

> <Number of connected components>
1

$$$$
Molecule_832
  Mrv2316 01072400032D          

 11 10  0  0  0  0            999 V2000
    4.5375   -3.5724    0.0000 C   0  0  0  0  0  0  0  0  0  0  0  0
    3.7125   -3.5724    0.0000 O   0  0  0  0  0  0  0  0  0  0  0  0
    3.3000   -2.8579    0.0000 C   0  0  0  0  0  0  0  0  0  0  0  0
    2.4750   -2.8579    0.0000 C   0  0  0  0  0  0  0  0  0  0  0  0
    2.0625   -2.1434    0.0000 N   0  0  0  0  0  0  0  0  0  0  0  0
    1.2375   -2.1434    0.0000 C   0  0  0  0  0  0  0  0  0  0  0  0
    0.8250   -2.8579    0.0000 O   0  0  0  0  0  0  0  0  0  0  0  0
    0.8250   -1.4289    0.0000 C   0  0  0  0  0  0  0  0  0  0  0  0
    0.0000   -1.4289    0.0000 C   0  0  0  0  0  0  0  0  0  0  0  0
    3.7125   -2.1434    0.0000 O   0  0  0  0  0  0  0  0  0  0  0  0
    4.5375   -2.1434    0.0000 C   0  0  0  0  0  0  0  0  0  0  0  0
  1  2  1  0  0  0  0
  2  3  1  0  0  0  0
  3  4  1  0  0  0  0
  4  5  1  0  0  0  0
  5  6  1  0  0  0  0
  6  7  2  0  0  0  0
  6  8  1  0  0  0  0
  8  9  2  0  0  0  0
  3 10  1  0  0  0  0
 10 11  1  0  0  0  0
M  END
> <RowID>
832

> <Original_SMILES>
COC(CNC(=O)C=C)OC

> <Canonical_QSARr>
COC(CNC(=O)C=C)OC

> <InChI_Code_QSARr>
InChI=1S/C7H13NO3/c1-4-6(9)8-5-7(10-2)11-3/h4,7H,1,5H2,2-3H3,(H,8,9)

> <InChI Key_QSARr>
CMMYGCUEJWTBCG-UHFFFAOYSA-N

> <Salt_Solvent>


> <Salt_Solvent_ID>
0

> <Number of connected components>
1

$$$$
Molecule_836
  Mrv2316 01072400032D          

 18 17  0  0  0  0            999 V2000
    2.1730   -0.3020    0.0000 C   0  0  0  0  0  0  0  0  0  0  0  0
    2.8875   -0.7145    0.0000 C   0  0  0  0  0  0  0  0  0  0  0  0
    3.6020   -0.3020    0.0000 Si  0  0  0  0  0  0  0  0  0  0  0  0
    4.0145   -1.0164    0.0000 O   0  0  0  0  0  0  0  0  0  0  0  0
    4.8395   -1.0164    0.0000 N   0  0  0  0  0  0  0  0  0  0  0  0
    5.2520   -1.7309    0.0000 C   0  0  0  0  0  0  0  0  0  0  0  0
    6.0770   -1.7309    0.0000 C   0  0  0  0  0  0  0  0  0  0  0  0
    4.8395   -2.4454    0.0000 C   0  0  0  0  0  0  0  0  0  0  0  0
    3.1895    0.4125    0.0000 O   0  0  0  0  0  0  0  0  0  0  0  0
    2.3645    0.4125    0.0000 N   0  0  0  0  0  0  0  0  0  0  0  0
    1.9520    1.1270    0.0000 C   0  0  0  0  0  0  0  0  0  0  0  0
    1.1270    1.1270    0.0000 C   0  0  0  0  0  0  0  0  0  0  0  0
    2.3645    1.8414    0.0000 C   0  0  0  0  0  0  0  0  0  0  0  0
    4.3165    0.1105    0.0000 O   0  0  0  0  0  0  0  0  0  0  0  0
    5.0309   -0.3020    0.0000 N   0  0  0  0  0  0  0  0  0  0  0  0
    5.7454    0.1105    0.0000 C   0  0  0  0  0  0  0  0  0  0  0  0
    6.4599   -0.3020    0.0000 C   0  0  0  0  0  0  0  0  0  0  0  0
    5.7454    0.9355    0.0000 C   0  0  0  0  0  0  0  0  0  0  0  0
  1  2  1  0  0  0  0
  2  3  1  0  0  0  0
  3  4  1  0  0  0  0
  4  5  1  0  0  0  0
  5  6  2  0  0  0  0
  6  7  1  0  0  0  0
  6  8  1  0  0  0  0
  3  9  1  0  0  0  0
  9 10  1  0  0  0  0
 10 11  2  0  0  0  0
 11 12  1  0  0  0  0
 11 13  1  0  0  0  0
  3 14  1  0  0  0  0
 14 15  1  0  0  0  0
 15 16  2  0  0  0  0
 16 17  1  0  0  0  0
 16 18  1  0  0  0  0
M  END
> <RowID>
836

> <Original_SMILES>
CC[Si](ON=C(C)C)(ON=C(C)C)ON=C(C)C

> <Canonical_QSARr>
CC[Si](ON=C(C)C)(ON=C(C)C)ON=C(C)C

> <InChI_Code_QSARr>
InChI=1S/C11H23N3O3Si/c1-8-18(15-12-9(2)3,16-13-10(4)5)17-14-11(6)7/h8H2,1-7H3

> <InChI Key_QSARr>
WJXSOVAGEAAECT-UHFFFAOYSA-N

> <Salt_Solvent>


> <Salt_Solvent_ID>
0

> <Number of connected components>
1

$$$$
Molecule_838
  Mrv2316 01072400032D          

 14 14  0  0  0  0            999 V2000
    1.4289   -4.2429    0.0000 C   0  0  0  0  0  0  0  0  0  0  0  0
    2.1434   -4.6554    0.0000 C   0  0  0  0  0  0  0  0  0  0  0  0
    2.1434   -5.4804    0.0000 C   0  0  0  0  0  0  0  0  0  0  0  0
    2.8579   -4.2429    0.0000 C   0  0  0  0  0  0  0  0  0  0  0  0
    2.8579   -3.4179    0.0000 O   0  0  0  0  0  0  0  0  0  0  0  0
    3.5724   -4.6554    0.0000 O   0  0  0  0  0  0  0  0  0  0  0  0
    4.2868   -4.2429    0.0000 C   0  0  0  0  0  0  0  0  0  0  0  0
    5.0013   -4.6554    0.0000 C   0  0  0  0  0  0  0  0  0  0  0  0
    5.7158   -4.2429    0.0000 C   0  0  0  0  0  0  0  0  0  0  0  0
    6.4302   -4.6554    0.0000 C   0  0  0  0  0  0  0  0  0  0  0  0
    7.1447   -4.2429    0.0000 C   0  0  0  0  0  0  0  0  0  0  0  0
    7.1447   -3.4179    0.0000 C   0  0  0  0  0  0  0  0  0  0  0  0
    6.4302   -3.0054    0.0000 C   0  0  0  0  0  0  0  0  0  0  0  0
    5.7158   -3.4179    0.0000 C   0  0  0  0  0  0  0  0  0  0  0  0
  1  2  1  0  0  0  0
  2  3  1  0  0  0  0
  2  4  1  0  0  0  0
  4  5  2  0  0  0  0
  4  6  1  0  0  0  0
  6  7  1  0  0  0  0
  7  8  1  0  0  0  0
  8  9  1  0  0  0  0
 10  9  1  0  0  0  0
 11 10  2  0  0  0  0
 12 11  1  0  0  0  0
 13 12  2  0  0  0  0
 14 13  1  0  0  0  0
  9 14  2  0  0  0  0
M  END
> <RowID>
838

> <Original_SMILES>
CC(C)C(=O)OCCC1C=CC=CC=1

> <Canonical_QSARr>
CC(C)C(=O)OCCC1C=CC=CC=1

> <InChI_Code_QSARr>
InChI=1S/C12H16O2/c1-10(2)12(13)14-9-8-11-6-4-3-5-7-11/h3-7,10H,8-9H2,1-2H3

> <InChI Key_QSARr>
JDQVBGQWADMTAM-UHFFFAOYSA-N

> <Salt_Solvent>


> <Salt_Solvent_ID>
0

> <Number of connected components>
1

$$$$
Molecule_839
  Mrv2316 01072400032D          

  9  8  0  0  0  0            999 V2000
    1.7605    1.8414    0.0000 C   0  0  0  0  0  0  0  0  0  0  0  0
    2.4750    1.4289    0.0000 C   0  0  0  0  0  0  0  0  0  0  0  0
    3.1895    1.8414    0.0000 O   0  0  0  0  0  0  0  0  0  0  0  0
    3.9039    1.4289    0.0000 C   0  0  0  0  0  0  0  0  0  0  0  0
    3.9039    0.6039    0.0000 C   0  0  0  0  0  0  0  0  0  0  0  0
    4.6184    0.1914    0.0000 Cl  0  0  0  0  0  0  0  0  0  0  0  0
    4.6184    1.8414    0.0000 O   0  0  0  0  0  0  0  0  0  0  0  0
    5.3329    1.4289    0.0000 C   0  0  0  0  0  0  0  0  0  0  0  0
    6.0473    1.8414    0.0000 C   0  0  0  0  0  0  0  0  0  0  0  0
  1  2  1  0  0  0  0
  2  3  1  0  0  0  0
  3  4  1  0  0  0  0
  4  5  1  0  0  0  0
  5  6  1  0  0  0  0
  4  7  1  0  0  0  0
  7  8  1  0  0  0  0
  8  9  1  0  0  0  0
M  END
> <RowID>
839

> <Original_SMILES>
CCOC(CCl)OCC

> <Canonical_QSARr>
CCOC(CCl)OCC

> <InChI_Code_QSARr>
InChI=1S/C6H13ClO2/c1-3-8-6(5-7)9-4-2/h6H,3-5H2,1-2H3

> <InChI Key_QSARr>
OVXJWSYBABKZMD-UHFFFAOYSA-N

> <Salt_Solvent>


> <Salt_Solvent_ID>
0

> <Number of connected components>
1

$$$$
Molecule_840
  Mrv2316 01072400032D          

 27 26  0  0  0  0            999 V2000
    3.2408   -3.0789    0.0000 O   0  0  0  0  0  0  0  0  0  0  0  0
    2.5263   -2.6664    0.0000 C   0  0  0  0  0  0  0  0  0  0  0  0
    2.5263   -1.8414    0.0000 O   0  0  0  0  0  0  0  0  0  0  0  0
    1.8118   -3.0789    0.0000 C   0  0  0  0  0  0  0  0  0  0  0  0
    1.0974   -2.6664    0.0000 N   0  0  0  0  0  0  0  0  0  0  0  0
    0.3829   -3.0789    0.0000 C   0  0  0  0  0  0  0  0  0  0  0  0
   -0.3316   -2.6664    0.0000 C   0  0  0  0  0  0  0  0  0  0  0  0
   -1.0460   -3.0789    0.0000 N   0  0  0  0  0  0  0  0  0  0  0  0
   -1.0460   -3.9039    0.0000 C   0  0  0  0  0  0  0  0  0  0  0  0
   -0.3316   -4.3164    0.0000 C   0  0  0  0  0  0  0  0  0  0  0  0
    0.3829   -3.9039    0.0000 O   0  0  0  0  0  0  0  0  0  0  0  0
   -0.3316   -5.1414    0.0000 O   0  0  0  0  0  0  0  0  0  0  0  0
   -1.7605   -2.6664    0.0000 C   0  0  0  0  0  0  0  0  0  0  0  0
   -2.4750   -3.0789    0.0000 C   0  0  0  0  0  0  0  0  0  0  0  0
   -3.1895   -2.6664    0.0000 N   0  0  0  0  0  0  0  0  0  0  0  0
   -3.9039   -3.0789    0.0000 C   0  0  0  0  0  0  0  0  0  0  0  0
   -4.6184   -2.6664    0.0000 C   0  0  0  0  0  0  0  0  0  0  0  0
   -5.3329   -3.0789    0.0000 O   0  0  0  0  0  0  0  0  0  0  0  0
   -4.6184   -1.8414    0.0000 O   0  0  0  0  0  0  0  0  0  0  0  0
   -3.1895   -1.8414    0.0000 C   0  0  0  0  0  0  0  0  0  0  0  0
   -2.4750   -1.4289    0.0000 C   0  0  0  0  0  0  0  0  0  0  0  0
   -2.4750   -0.6039    0.0000 O   0  0  0  0  0  0  0  0  0  0  0  0
   -1.7605   -1.8414    0.0000 O   0  0  0  0  0  0  0  0  0  0  0  0
    1.0974   -1.8414    0.0000 C   0  0  0  0  0  0  0  0  0  0  0  0
    0.3829   -1.4289    0.0000 C   0  0  0  0  0  0  0  0  0  0  0  0
   -0.3316   -1.8414    0.0000 O   0  0  0  0  0  0  0  0  0  0  0  0
    0.3829   -0.6039    0.0000 O   0  0  0  0  0  0  0  0  0  0  0  0
  1  2  1  0  0  0  0
  2  3  2  0  0  0  0
  2  4  1  0  0  0  0
  4  5  1  0  0  0  0
  5  6  1  0  0  0  0
  6  7  1  0  0  0  0
  7  8  1  0  0  0  0
  8  9  1  0  0  0  0
  9 10  1  0  0  0  0
 10 11  1  0  0  0  0
 10 12  2  0  0  0  0
  8 13  1  0  0  0  0
 13 14  1  0  0  0  0
 14 15  1  0  0  0  0
 15 16  1  0  0  0  0
 16 17  1  0  0  0  0
 17 18  1  0  0  0  0
 17 19  2  0  0  0  0
 15 20  1  0  0  0  0
 20 21  1  0  0  0  0
 21 22  1  0  0  0  0
 21 23  2  0  0  0  0
  5 24  1  0  0  0  0
 24 25  1  0  0  0  0
 25 26  2  0  0  0  0
 25 27  1  0  0  0  0
M  END
> <RowID>
840

> <Original_SMILES>
[Na+].[Fe+3].[O-]C(=O)CN(CCN(CC(O)=O)CC([O-])=O)CCN(CC([O-])=O)CC([O-])=O

> <Canonical_QSARr>
OC(=O)CN(CCN(CC(O)=O)CC(O)=O)CCN(CC(O)=O)CC(O)=O

> <InChI_Code_QSARr>
InChI=1S/C14H23N3O10/c18-10(19)5-15(1-3-16(6-11(20)21)7-12(22)23)2-4-17(8-13(24)25)9-14(26)27/h1-9H2,(H,18,19)(H,20,21)(H,22,23)(H,24,25)(H,26,27)

> <InChI Key_QSARr>
QPCDCPDFJACHGM-UHFFFAOYSA-N

> <Salt_Solvent>
[Na+].[Fe+3]

> <Salt_Solvent_ID>
185

> <Number of connected components>
3

$$$$
Molecule_841
  Mrv2316 01072400032D          

 26 29  0  0  0  0            999 V2000
    4.5708   -4.4120    0.0000 C   0  0  0  0  0  0  0  0  0  0  0  0
    4.0859   -3.7445    0.0000 N   0  0  0  0  0  0  0  0  0  0  0  0
    4.3408   -2.9599    0.0000 C   0  0  0  0  0  0  0  0  0  0  0  0
    3.6734   -2.4750    0.0000 C   0  0  0  0  0  0  0  0  0  0  0  0
    3.6734   -1.6500    0.0000 C   0  0  0  0  0  0  0  0  0  0  0  0
    4.3878   -1.2375    0.0000 O   0  0  0  0  0  0  0  0  0  0  0  0
    2.9589   -1.2375    0.0000 N   0  0  0  0  0  0  0  0  0  0  0  0
    2.9589   -0.4125    0.0000 C   0  0  0  0  0  0  0  0  0  0  0  0
    3.6734    0.0000    0.0000 C   0  0  0  0  0  0  0  0  0  0  0  0
    3.6734    0.8250    0.0000 C   0  0  0  0  0  0  0  0  0  0  0  0
    2.9589    1.2375    0.0000 C   0  0  0  0  0  0  0  0  0  0  0  0
    2.2444    0.8250    0.0000 C   0  0  0  0  0  0  0  0  0  0  0  0
    1.5300    1.2375    0.0000 C   0  0  0  0  0  0  0  0  0  0  0  0
    0.8155    0.8250    0.0000 C   0  0  0  0  0  0  0  0  0  0  0  0
    0.8155    0.0000    0.0000 C   0  0  0  0  0  0  0  0  0  0  0  0
    1.5300   -0.4125    0.0000 C   0  0  0  0  0  0  0  0  0  0  0  0
    2.2444    0.0000    0.0000 C   0  0  0  0  0  0  0  0  0  0  0  0
    1.7362    0.4125    0.0000 C   0  0  0  0  0  0  0  0  0  0  0  0
    2.5612    0.4125    0.0000 C   0  0  0  0  0  0  0  0  0  0  0  0
    3.3149    0.7481    0.0000 Cl  0  0  0  0  0  0  0  0  0  0  0  0
    3.3149    0.0769    0.0000 Cl  0  0  0  0  0  0  0  0  0  0  0  0
    3.0059   -2.9599    0.0000 C   0  0  0  0  0  0  0  0  0  0  0  0
    2.2213   -2.7050    0.0000 C   0  0  0  0  0  0  0  0  0  0  0  0
    1.6082   -3.2570    0.0000 F   0  0  0  0  0  0  0  0  0  0  0  0
    2.0498   -1.8980    0.0000 F   0  0  0  0  0  0  0  0  0  0  0  0
    3.2609   -3.7445    0.0000 N   0  0  0  0  0  0  0  0  0  0  0  0
  1  2  1  0  0  0  0
  3  2  1  0  0  0  0
  4  3  2  0  0  0  0
  4  5  1  0  0  0  0
  5  6  2  0  0  0  0
  5  7  1  0  0  0  0
  7  8  1  0  0  0  0
  9  8  1  0  0  0  0
 10  9  2  0  0  0  0
 11 10  1  0  0  0  0
 12 11  2  0  0  0  0
 12 13  1  0  0  0  0
 14 13  1  0  0  0  0
 15 14  1  0  0  0  0
 16 15  1  0  0  0  0
 16 17  1  0  0  0  0
  8 17  2  0  0  0  0
 17 12  1  0  0  0  0
 18 16  1  0  0  0  0
 13 18  1  0  0  0  0
 18 19  2  0  0  0  0
 19 20  1  0  0  0  0
 19 21  1  0  0  0  0
 22  4  1  0  0  0  0
 22 23  1  0  0  0  0
 23 24  1  0  0  0  0
 23 25  1  0  0  0  0
 26 22  2  0  0  0  0
  2 26  1  0  0  0  0
M  END
> <RowID>
841

> <Original_SMILES>
CN1C=C(C(=O)NC2C=CC=C3C4CCC(C4=C(Cl)Cl)C3=2)C(=N1)C(F)F

> <Canonical_QSARr>
CN1C=C(C(=O)NC2C=CC=C3C4CCC(C4=C(Cl)Cl)C3=2)C(=N1)C(F)F

> <InChI_Code_QSARr>
InChI=1S/C18H15Cl2F2N3O/c1-25-7-11(15(24-25)17(21)22)18(26)23-12-4-2-3-8-9-5-6-10(13(8)12)14(9)16(19)20/h2-4,7,9-10,17H,5-6H2,1H3,(H,23,26)

> <InChI Key_QSARr>
CCCGEKHKTPTUHJ-UHFFFAOYSA-N

> <Salt_Solvent>


> <Salt_Solvent_ID>
0

> <Number of connected components>
1

$$$$
Molecule_842
  Mrv2316 01072400032D          

 32 33  0  0  0  0            999 V2000
    1.7159   -1.1725    0.0000 O   0  0  0  0  0  0  0  0  0  0  0  0
    0.9058   -1.0166    0.0000 S   0  0  0  0  0  0  0  0  0  0  0  0
    0.7499   -1.8267    0.0000 O   0  0  0  0  0  0  0  0  0  0  0  0
    1.0617   -0.2064    0.0000 O   0  0  0  0  0  0  0  0  0  0  0  0
    0.0957   -0.8607    0.0000 C   0  0  0  0  0  0  0  0  0  0  0  0
   -0.1744   -0.0811    0.0000 C   0  0  0  0  0  0  0  0  0  0  0  0
   -0.9845    0.0748    0.0000 C   0  0  0  0  0  0  0  0  0  0  0  0
   -1.2546    0.8543    0.0000 C   0  0  0  0  0  0  0  0  0  0  0  0
   -0.7145    1.4780    0.0000 C   0  0  0  0  0  0  0  0  0  0  0  0
    0.0957    1.3221    0.0000 C   0  0  0  0  0  0  0  0  0  0  0  0
    0.3657    0.5425    0.0000 C   0  0  0  0  0  0  0  0  0  0  0  0
   -1.5246   -0.5488    0.0000 C   0  0  0  0  0  0  0  0  0  0  0  0
   -1.2546   -1.3284    0.0000 C   0  0  0  0  0  0  0  0  0  0  0  0
   -1.7947   -1.9520    0.0000 C   0  0  0  0  0  0  0  0  0  0  0  0
   -2.6048   -1.7961    0.0000 C   0  0  0  0  0  0  0  0  0  0  0  0
   -3.1449   -2.4198    0.0000 C   0  0  0  0  0  0  0  0  0  0  0  0
   -3.9550   -2.2639    0.0000 C   0  0  0  0  0  0  0  0  0  0  0  0
   -4.4951   -2.8875    0.0000 C   0  0  0  0  0  0  0  0  0  0  0  0
   -5.3052   -2.7316    0.0000 C   0  0  0  0  0  0  0  0  0  0  0  0
   -5.8453   -3.3552    0.0000 C   0  0  0  0  0  0  0  0  0  0  0  0
   -6.6555   -3.1993    0.0000 C   0  0  0  0  0  0  0  0  0  0  0  0
   -7.1955   -3.8230    0.0000 C   0  0  0  0  0  0  0  0  0  0  0  0
   -0.4444   -1.4843    0.0000 C   0  0  0  0  0  0  0  0  0  0  0  0
   -0.1744   -2.2639    0.0000 C   0  0  0  0  0  0  0  0  0  0  0  0
   -0.7145   -2.8875    0.0000 C   0  0  0  0  0  0  0  0  0  0  0  0
   -0.4444   -3.6671    0.0000 C   0  0  0  0  0  0  0  0  0  0  0  0
    0.3657   -3.8230    0.0000 C   0  0  0  0  0  0  0  0  0  0  0  0
    0.9058   -3.1993    0.0000 C   0  0  0  0  0  0  0  0  0  0  0  0
    1.7159   -3.3552    0.0000 C   0  0  0  0  0  0  0  0  0  0  0  0
    2.2560   -2.7316    0.0000 C   0  0  0  0  0  0  0  0  0  0  0  0
    3.0661   -2.8875    0.0000 C   0  0  0  0  0  0  0  0  0  0  0  0
    3.6062   -2.2639    0.0000 C   0  0  0  0  0  0  0  0  0  0  0  0
  1  2  1  0  0  0  0
  2  3  2  0  0  0  0
  2  4  2  0  0  0  0
  2  5  1  0  0  0  0
  6  5  1  0  0  0  0
  6  7  2  0  0  0  0
  7  8  1  0  0  0  0
  8  9  2  0  0  0  0
  9 10  1  0  0  0  0
 10 11  2  0  0  0  0
 11  6  1  0  0  0  0
 12  7  1  0  0  0  0
 13 12  2  0  0  0  0
 13 14  1  0  0  0  0
 14 15  1  0  0  0  0
 15 16  1  0  0  0  0
 16 17  1  0  0  0  0
 17 18  1  0  0  0  0
 18 19  1  0  0  0  0
 19 20  1  0  0  0  0
 20 21  1  0  0  0  0
 21 22  1  0  0  0  0
 23 13  1  0  0  0  0
  5 23  2  0  0  0  0
 23 24  1  0  0  0  0
 24 25  1  0  0  0  0
 25 26  1  0  0  0  0
 26 27  1  0  0  0  0
 27 28  1  0  0  0  0
 28 29  1  0  0  0  0
 29 30  1  0  0  0  0
 30 31  1  0  0  0  0
 31 32  1  0  0  0  0
M  END
> <RowID>
842

> <Original_SMILES>
[Mg+2].CCCCCCCCCC1=C(C2=CC=CC=C2C=C1CCCCCCCCC)S([O-])(=O)=O.CCCCCCCCCC1=C(C2=CC=CC=C2C=C1CCCCCCCCC)S([O-])(=O)=O

> <Canonical_QSARr>
CCCCCCCCCC1=C(C2C=CC=CC=2C=C1CCCCCCCCC)S(O)(=O)=O

> <InChI_Code_QSARr>
InChI=1S/C28H44O3S/c1-3-5-7-9-11-13-15-19-24-23-25-20-17-18-22-27(25)28(32(29,30)31)26(24)21-16-14-12-10-8-6-4-2/h17-18,20,22-23H,3-16,19,21H2,1-2H3,(H,29,30,31)

> <InChI Key_QSARr>
WDNQRCVBPNOTNV-UHFFFAOYSA-N

> <Salt_Solvent>
[Mg+2]

> <Salt_Solvent_ID>
120

> <Number of connected components>
3

$$$$
Molecule_843
  Mrv2316 01072400032D          

 18 18  0  0  0  0            999 V2000
   -2.1831    0.5271    0.0000 C   0  0  0  0  0  0  0  0  0  0  0  0
   -1.4686    0.9396    0.0000 C   0  0  0  0  0  0  0  0  0  0  0  0
   -1.4686    1.7646    0.0000 O   0  0  0  0  0  0  0  0  0  0  0  0
   -0.7542    0.5271    0.0000 C   0  0  0  0  0  0  0  0  0  0  0  0
   -0.0397    0.9396    0.0000 C   0  0  0  0  0  0  0  0  0  0  0  0
   -0.0397    1.7646    0.0000 O   0  0  0  0  0  0  0  0  0  0  0  0
    0.6748    0.5271    0.0000 N   0  0  0  0  0  0  0  0  0  0  0  0
    0.6748   -0.2979    0.0000 C   0  0  0  0  0  0  0  0  0  0  0  0
   -0.0397   -0.7104    0.0000 C   0  0  0  0  0  0  0  0  0  0  0  0
   -0.0397   -1.5354    0.0000 C   0  0  0  0  0  0  0  0  0  0  0  0
   -0.7542   -1.9479    0.0000 O   0  0  0  0  0  0  0  0  0  0  0  0
   -0.7542   -2.7729    0.0000 C   0  0  0  0  0  0  0  0  0  0  0  0
    0.6748   -1.9479    0.0000 C   0  0  0  0  0  0  0  0  0  0  0  0
    0.6748   -2.7729    0.0000 Cl  0  0  0  0  0  0  0  0  0  0  0  0
    1.3893   -1.5354    0.0000 C   0  0  0  0  0  0  0  0  0  0  0  0
    1.3893   -0.7104    0.0000 C   0  0  0  0  0  0  0  0  0  0  0  0
    2.1037   -0.2979    0.0000 O   0  0  0  0  0  0  0  0  0  0  0  0
    2.1037    0.5271    0.0000 C   0  0  0  0  0  0  0  0  0  0  0  0
  1  2  1  0  0  0  0
  2  3  2  0  0  0  0
  2  4  1  0  0  0  0
  4  5  1  0  0  0  0
  5  6  2  0  0  0  0
  5  7  1  0  0  0  0
  7  8  1  0  0  0  0
  9  8  1  0  0  0  0
 10  9  2  0  0  0  0
 10 11  1  0  0  0  0
 11 12  1  0  0  0  0
 13 10  1  0  0  0  0
 13 14  1  0  0  0  0
 15 13  2  0  0  0  0
 16 15  1  0  0  0  0
  8 16  2  0  0  0  0
 16 17  1  0  0  0  0
 17 18  1  0  0  0  0
M  END
> <RowID>
843

> <Original_SMILES>
CC(=O)CC(=O)NC1C=C(OC)C(Cl)=CC=1OC

> <Canonical_QSARr>
CC(=O)CC(=O)NC1C=C(OC)C(Cl)=CC=1OC

> <InChI_Code_QSARr>
InChI=1S/C12H14ClNO4/c1-7(15)4-12(16)14-9-6-10(17-2)8(13)5-11(9)18-3/h5-6H,4H2,1-3H3,(H,14,16)

> <InChI Key_QSARr>
MOUVJGIRLPZEES-UHFFFAOYSA-N

> <Salt_Solvent>


> <Salt_Solvent_ID>
0

> <Number of connected components>
1

$$$$
Molecule_844
  Mrv2316 01072400032D          

 12 12  0  0  0  0            999 V2000
    0.0000   -3.6438    0.0000 C   0  0  0  0  0  0  0  0  0  0  0  0
    0.7145   -3.2313    0.0000 C   0  0  0  0  0  0  0  0  0  0  0  0
    1.4289   -3.6438    0.0000 O   0  0  0  0  0  0  0  0  0  0  0  0
    2.1434   -3.2313    0.0000 C   0  0  0  0  0  0  0  0  0  0  0  0
    2.1434   -2.4063    0.0000 O   0  0  0  0  0  0  0  0  0  0  0  0
    2.8579   -3.6438    0.0000 C   0  0  0  0  0  0  0  0  0  0  0  0
    3.5724   -3.2313    0.0000 C   0  0  0  0  0  0  0  0  0  0  0  0
    4.2868   -3.6438    0.0000 C   0  0  0  0  0  0  0  0  0  0  0  0
    5.0013   -3.2313    0.0000 C   0  0  0  0  0  0  0  0  0  0  0  0
    5.0013   -2.4063    0.0000 C   0  0  0  0  0  0  0  0  0  0  0  0
    4.2868   -1.9938    0.0000 C   0  0  0  0  0  0  0  0  0  0  0  0
    3.5724   -2.4063    0.0000 C   0  0  0  0  0  0  0  0  0  0  0  0
  1  2  1  0  0  0  0
  2  3  1  0  0  0  0
  3  4  1  0  0  0  0
  4  5  2  0  0  0  0
  4  6  1  0  0  0  0
  6  7  1  0  0  0  0
  8  7  1  0  0  0  0
  9  8  2  0  0  0  0
 10  9  1  0  0  0  0
 11 10  2  0  0  0  0
 12 11  1  0  0  0  0
  7 12  2  0  0  0  0
M  END
> <RowID>
844

> <Original_SMILES>
CCOC(=O)CC1C=CC=CC=1

> <Canonical_QSARr>
CCOC(=O)CC1C=CC=CC=1

> <InChI_Code_QSARr>
InChI=1S/C10H12O2/c1-2-12-10(11)8-9-6-4-3-5-7-9/h3-7H,2,8H2,1H3

> <InChI Key_QSARr>
DULCUDSUACXJJC-UHFFFAOYSA-N

> <Salt_Solvent>


> <Salt_Solvent_ID>
0

> <Number of connected components>
1

$$$$
Molecule_845
  Mrv2316 01072400032D          

 57 60  0  0  0  0            999 V2000
    8.5737   -5.7750    0.0000 C   0  0  0  0  0  0  0  0  0  0  0  0
    7.8592   -5.3625    0.0000 C   0  0  0  0  0  0  0  0  0  0  0  0
    8.2717   -4.6480    0.0000 C   0  0  0  0  0  0  0  0  0  0  0  0
    7.4467   -6.0770    0.0000 C   0  0  0  0  0  0  0  0  0  0  0  0
    7.1447   -4.9500    0.0000 C   0  0  0  0  0  0  0  0  0  0  0  0
    7.1447   -4.1250    0.0000 C   0  0  0  0  0  0  0  0  0  0  0  0
    6.4303   -3.7125    0.0000 C   0  0  0  0  0  0  0  0  0  0  0  0
    6.4303   -2.8875    0.0000 C   0  0  0  0  0  0  0  0  0  0  0  0
    7.1447   -2.4750    0.0000 N   0  0  0  0  0  0  0  0  0  0  0  0
    7.8592   -2.8875    0.0000 C   0  0  0  0  0  0  0  0  0  0  0  0
    7.8592   -3.7125    0.0000 O   0  0  0  0  0  0  0  0  0  0  0  0
    8.5737   -2.4750    0.0000 N   0  0  0  0  0  0  0  0  0  0  0  0
    9.2882   -2.8875    0.0000 C   0  0  0  0  0  0  0  0  0  0  0  0
   10.0026   -2.4750    0.0000 C   0  0  0  0  0  0  0  0  0  0  0  0
   10.7171   -2.8875    0.0000 C   0  0  0  0  0  0  0  0  0  0  0  0
   11.4316   -2.4750    0.0000 C   0  0  0  0  0  0  0  0  0  0  0  0
   12.1460   -2.8875    0.0000 C   0  0  0  0  0  0  0  0  0  0  0  0
   12.8605   -3.3000    0.0000 C   0  0  0  0  0  0  0  0  0  0  0  0
   11.7335   -3.6020    0.0000 C   0  0  0  0  0  0  0  0  0  0  0  0
   12.5585   -2.1730    0.0000 C   0  0  0  0  0  0  0  0  0  0  0  0
   11.4316   -1.6500    0.0000 C   0  0  0  0  0  0  0  0  0  0  0  0
   12.1460   -1.2375    0.0000 O   0  0  0  0  0  0  0  0  0  0  0  0
   10.7171   -1.2375    0.0000 C   0  0  0  0  0  0  0  0  0  0  0  0
   10.7171   -0.4125    0.0000 C   0  0  0  0  0  0  0  0  0  0  0  0
   10.7171    0.4125    0.0000 C   0  0  0  0  0  0  0  0  0  0  0  0
    9.8921   -0.4125    0.0000 C   0  0  0  0  0  0  0  0  0  0  0  0
   11.5421   -0.4125    0.0000 C   0  0  0  0  0  0  0  0  0  0  0  0
   10.0026   -1.6500    0.0000 C   0  0  0  0  0  0  0  0  0  0  0  0
    8.5737   -1.6500    0.0000 C   0  0  0  0  0  0  0  0  0  0  0  0
    9.2882   -1.2375    0.0000 O   0  0  0  0  0  0  0  0  0  0  0  0
    7.8592   -1.2375    0.0000 N   0  0  0  0  0  0  0  0  0  0  0  0
    7.8592   -0.4125    0.0000 C   0  0  0  0  0  0  0  0  0  0  0  0
    7.1447    0.0000    0.0000 C   0  0  0  0  0  0  0  0  0  0  0  0
    7.1447    0.8250    0.0000 C   0  0  0  0  0  0  0  0  0  0  0  0
    6.4303    1.2375    0.0000 C   0  0  0  0  0  0  0  0  0  0  0  0
    6.4303    2.0625    0.0000 C   0  0  0  0  0  0  0  0  0  0  0  0
    6.4303    2.8875    0.0000 C   0  0  0  0  0  0  0  0  0  0  0  0
    5.6053    2.0625    0.0000 C   0  0  0  0  0  0  0  0  0  0  0  0
    7.2553    2.0625    0.0000 C   0  0  0  0  0  0  0  0  0  0  0  0
    5.7158    0.8250    0.0000 C   0  0  0  0  0  0  0  0  0  0  0  0
    5.0013    1.2375    0.0000 O   0  0  0  0  0  0  0  0  0  0  0  0
    5.7158    0.0000    0.0000 C   0  0  0  0  0  0  0  0  0  0  0  0
    5.0013   -0.4125    0.0000 C   0  0  0  0  0  0  0  0  0  0  0  0
    4.2869   -0.8250    0.0000 C   0  0  0  0  0  0  0  0  0  0  0  0
    5.4138   -1.1270    0.0000 C   0  0  0  0  0  0  0  0  0  0  0  0
    4.5888    0.3020    0.0000 C   0  0  0  0  0  0  0  0  0  0  0  0
    6.4303   -0.4125    0.0000 C   0  0  0  0  0  0  0  0  0  0  0  0
    7.1447   -1.6500    0.0000 C   0  0  0  0  0  0  0  0  0  0  0  0
    6.4303   -1.2375    0.0000 O   0  0  0  0  0  0  0  0  0  0  0  0
    5.7158   -4.1250    0.0000 C   0  0  0  0  0  0  0  0  0  0  0  0
    5.7158   -4.9500    0.0000 C   0  0  0  0  0  0  0  0  0  0  0  0
    5.0013   -5.3625    0.0000 C   0  0  0  0  0  0  0  0  0  0  0  0
    4.2869   -5.7750    0.0000 C   0  0  0  0  0  0  0  0  0  0  0  0
    5.4138   -6.0770    0.0000 C   0  0  0  0  0  0  0  0  0  0  0  0
    4.5888   -4.6480    0.0000 C   0  0  0  0  0  0  0  0  0  0  0  0
    6.4303   -5.3625    0.0000 C   0  0  0  0  0  0  0  0  0  0  0  0
    6.4303   -6.1875    0.0000 O   0  0  0  0  0  0  0  0  0  0  0  0
  1  2  1  0  0  0  0
  2  3  1  0  0  0  0
  2  4  1  0  0  0  0
  2  5  1  0  0  0  0
  6  5  2  0  0  0  0
  7  6  1  0  0  0  0
  7  8  1  0  0  0  0
  8  9  1  0  0  0  0
 10  9  1  0  0  0  0
 10 11  2  0  0  0  0
 12 10  1  0  0  0  0
 12 13  1  0  0  0  0
 13 14  1  0  0  0  0
 15 14  2  0  0  0  0
 16 15  1  0  0  0  0
 16 17  1  0  0  0  0
 17 18  1  0  0  0  0
 17 19  1  0  0  0  0
 17 20  1  0  0  0  0
 21 16  2  0  0  0  0
 21 22  1  0  0  0  0
 23 21  1  0  0  0  0
 23 24  1  0  0  0  0
 24 25  1  0  0  0  0
 24 26  1  0  0  0  0
 24 27  1  0  0  0  0
 28 23  2  0  0  0  0
 14 28  1  0  0  0  0
 29 12  1  0  0  0  0
 29 30  2  0  0  0  0
 31 29  1  0  0  0  0
 31 32  1  0  0  0  0
 32 33  1  0  0  0  0
 34 33  2  0  0  0  0
 35 34  1  0  0  0  0
 35 36  1  0  0  0  0
 36 37  1  0  0  0  0
 36 38  1  0  0  0  0
 36 39  1  0  0  0  0
 40 35  2  0  0  0  0
 40 41  1  0  0  0  0
 42 40  1  0  0  0  0
 42 43  1  0  0  0  0
 43 44  1  0  0  0  0
 43 45  1  0  0  0  0
 43 46  1  0  0  0  0
 47 42  2  0  0  0  0
 33 47  1  0  0  0  0
 48 31  1  0  0  0  0
  9 48  1  0  0  0  0
 48 49  2  0  0  0  0
 50  7  2  0  0  0  0
 51 50  1  0  0  0  0
 51 52  1  0  0  0  0
 52 53  1  0  0  0  0
 52 54  1  0  0  0  0
 52 55  1  0  0  0  0
 56 51  2  0  0  0  0
  5 56  1  0  0  0  0
 56 57  1  0  0  0  0
M  END
> <RowID>
845

> <Original_SMILES>
CC(C)(C)C1=CC(CN2C(=O)N(CC3=CC(=C(O)C(=C3)C(C)(C)C)C(C)(C)C)C(=O)N(CC3=CC(=C(O)C(=C3)C(C)(C)C)C(C)(C)C)C2=O)=CC(=C1O)C(C)(C)C

> <Canonical_QSARr>
CC(C)(C)C1=CC(CN2C(=O)N(CC3=CC(=C(O)C(=C3)C(C)(C)C)C(C)(C)C)C(=O)N(CC3=CC(=C(O)C(=C3)C(C)(C)C)C(C)(C)C)C2=O)=CC(=C1O)C(C)(C)C

> <InChI_Code_QSARr>
InChI=1S/C48H69N3O6/c1-43(2,3)31-19-28(20-32(37(31)52)44(4,5)6)25-49-40(55)50(26-29-21-33(45(7,8)9)38(53)34(22-29)46(10,11)12)42(57)51(41(49)56)27-30-23-35(47(13,14)15)39(54)36(24-30)48(16,17)18/h19-24,52-54H,25-27H2,1-18H3

> <InChI Key_QSARr>
VNQNXQYZMPJLQX-UHFFFAOYSA-N

> <Salt_Solvent>


> <Salt_Solvent_ID>
0

> <Number of connected components>
1

$$$$
Molecule_847
  Mrv2316 01072400032D          

 13 12  0  0  0  0            999 V2000
    2.9684    1.8414    0.0000 C   0  0  0  0  0  0  0  0  0  0  0  0
    2.2539    1.4289    0.0000 C   0  0  0  0  0  0  0  0  0  0  0  0
    1.5395    1.8414    0.0000 C   0  0  0  0  0  0  0  0  0  0  0  0
    0.8250    1.4289    0.0000 N   0  3  0  0  0  0  0  0  0  0  0  0
    0.1105    1.0164    0.0000 C   0  0  0  0  0  0  0  0  0  0  0  0
   -0.6039    1.4289    0.0000 C   0  0  0  0  0  0  0  0  0  0  0  0
   -1.3184    1.0164    0.0000 C   0  0  0  0  0  0  0  0  0  0  0  0
    0.4125    2.1434    0.0000 C   0  0  0  0  0  0  0  0  0  0  0  0
   -0.4125    2.1434    0.0000 C   0  0  0  0  0  0  0  0  0  0  0  0
   -0.8250    2.8579    0.0000 C   0  0  0  0  0  0  0  0  0  0  0  0
    1.2375    0.7144    0.0000 C   0  0  0  0  0  0  0  0  0  0  0  0
    0.8250   -0.0000    0.0000 C   0  0  0  0  0  0  0  0  0  0  0  0
    0.0000   -0.0000    0.0000 C   0  0  0  0  0  0  0  0  0  0  0  0
  1  2  1  0  0  0  0
  2  3  1  0  0  0  0
  3  4  1  0  0  0  0
  4  5  1  0  0  0  0
  5  6  1  0  0  0  0
  6  7  1  0  0  0  0
  4  8  1  0  0  0  0
  8  9  1  0  0  0  0
  9 10  1  0  0  0  0
  4 11  1  0  0  0  0
 11 12  1  0  0  0  0
 12 13  1  0  0  0  0
M  CHG  1   4   1
M  END
> <RowID>
847

> <Original_SMILES>
[Br-].CCC[N+](CCC)(CCC)CCC

> <Canonical_QSARr>
CCC[N+](CCC)(CCC)CCC

> <InChI_Code_QSARr>
InChI=1S/C12H28N/c1-5-9-13(10-6-2,11-7-3)12-8-4/h5-12H2,1-4H3/q+1

> <InChI Key_QSARr>
OSBSFAARYOCBHB-UHFFFAOYSA-N

> <Salt_Solvent>
[Br-]

> <Salt_Solvent_ID>
350

> <Number of connected components>
2

$$$$
Molecule_848
  Mrv2316 01072400032D          

 24 24  0  0  0  0            999 V2000
    2.2582    0.3020    0.0000 C   0  0  0  0  0  0  0  0  0  0  0  0
    1.8457   -0.4125    0.0000 C   0  0  0  0  0  0  0  0  0  0  0  0
    1.4332   -1.1270    0.0000 C   0  0  0  0  0  0  0  0  0  0  0  0
    2.5602   -0.8250    0.0000 O   0  0  0  0  0  0  0  0  0  0  0  0
    2.5602   -1.6500    0.0000 O   0  0  0  0  0  0  0  0  0  0  0  0
    3.2747   -2.0625    0.0000 C   0  0  0  0  0  0  0  0  0  0  0  0
    3.9891   -2.4750    0.0000 C   0  0  0  0  0  0  0  0  0  0  0  0
    3.6872   -1.3480    0.0000 C   0  0  0  0  0  0  0  0  0  0  0  0
    2.8622   -2.7770    0.0000 C   0  0  0  0  0  0  0  0  0  0  0  0
    1.1313   -0.0000    0.0000 C   0  0  0  0  0  0  0  0  0  0  0  0
    1.1313    0.8250    0.0000 C   0  0  0  0  0  0  0  0  0  0  0  0
    0.4168    1.2375    0.0000 C   0  0  0  0  0  0  0  0  0  0  0  0
    0.4168    2.0625    0.0000 C   0  0  0  0  0  0  0  0  0  0  0  0
    1.2418    2.0625    0.0000 C   0  0  0  0  0  0  0  0  0  0  0  0
   -0.4082    2.0625    0.0000 C   0  0  0  0  0  0  0  0  0  0  0  0
    0.4168    2.8875    0.0000 O   0  0  0  0  0  0  0  0  0  0  0  0
    1.1313    3.3000    0.0000 O   0  0  0  0  0  0  0  0  0  0  0  0
    1.1313    4.1250    0.0000 C   0  0  0  0  0  0  0  0  0  0  0  0
    1.1313    4.9500    0.0000 C   0  0  0  0  0  0  0  0  0  0  0  0
    1.9563    4.1250    0.0000 C   0  0  0  0  0  0  0  0  0  0  0  0
    0.3063    4.1250    0.0000 C   0  0  0  0  0  0  0  0  0  0  0  0
   -0.2977    0.8250    0.0000 C   0  0  0  0  0  0  0  0  0  0  0  0
   -0.2977    0.0000    0.0000 C   0  0  0  0  0  0  0  0  0  0  0  0
    0.4168   -0.4125    0.0000 C   0  0  0  0  0  0  0  0  0  0  0  0
  1  2  1  0  0  0  0
  2  3  1  0  0  0  0
  2  4  1  0  0  0  0
  4  5  1  0  0  0  0
  5  6  1  0  0  0  0
  6  7  1  0  0  0  0
  6  8  1  0  0  0  0
  6  9  1  0  0  0  0
  2 10  1  0  0  0  0
 11 10  1  0  0  0  0
 12 11  2  0  0  0  0
 12 13  1  0  0  0  0
 13 14  1  0  0  0  0
 13 15  1  0  0  0  0
 13 16  1  0  0  0  0
 16 17  1  0  0  0  0
 17 18  1  0  0  0  0
 18 19  1  0  0  0  0
 18 20  1  0  0  0  0
 18 21  1  0  0  0  0
 22 12  1  0  0  0  0
 23 22  2  0  0  0  0
 24 23  1  0  0  0  0
 10 24  2  0  0  0  0
M  END
> <RowID>
848

> <Original_SMILES>
CC(C)(OOC(C)(C)C)C1C=C(C=CC=1)C(C)(C)OOC(C)(C)C

> <Canonical_QSARr>
CC(C)(OOC(C)(C)C)C1C=C(C=CC=1)C(C)(C)OOC(C)(C)C

> <InChI_Code_QSARr>
InChI=1S/C20H34O4/c1-17(2,3)21-23-19(7,8)15-12-11-13-16(14-15)20(9,10)24-22-18(4,5)6/h11-14H,1-10H3

> <InChI Key_QSARr>
UBRWPVTUQDJKCC-UHFFFAOYSA-N

> <Salt_Solvent>


> <Salt_Solvent_ID>
0

> <Number of connected components>
1

$$$$
Molecule_849
  Mrv2316 01072400032D          

  9  9  0  0  0  0            999 V2000
   -0.6351    2.1083    0.0000 O   0  0  0  0  0  0  0  0  0  0  0  0
   -0.6351    1.2833    0.0000 C   0  0  0  0  0  0  0  0  0  0  0  0
    0.0794    0.8708    0.0000 C   0  0  0  0  0  0  0  0  0  0  0  0
    0.0794    0.0458    0.0000 C   0  0  0  0  0  0  0  0  0  0  0  0
    0.7939   -0.3667    0.0000 C   0  0  0  0  0  0  0  0  0  0  0  0
    1.5083    0.0458    0.0000 C   0  0  0  0  0  0  0  0  0  0  0  0
    1.5083    0.8708    0.0000 C   0  0  0  0  0  0  0  0  0  0  0  0
    0.7939    1.2833    0.0000 C   0  0  0  0  0  0  0  0  0  0  0  0
    0.7939    2.1083    0.0000 Cl  0  0  0  0  0  0  0  0  0  0  0  0
  1  2  2  0  0  0  0
  2  3  1  0  0  0  0
  4  3  1  0  0  0  0
  5  4  2  0  0  0  0
  6  5  1  0  0  0  0
  7  6  2  0  0  0  0
  8  7  1  0  0  0  0
  3  8  2  0  0  0  0
  8  9  1  0  0  0  0
M  END
> <RowID>
849

> <Original_SMILES>
O=CC1C=CC=CC=1Cl

> <Canonical_QSARr>
O=CC1C=CC=CC=1Cl

> <InChI_Code_QSARr>
InChI=1S/C7H5ClO/c8-7-4-2-1-3-6(7)5-9/h1-5H

> <InChI Key_QSARr>
FPYUJUBAXZAQNL-UHFFFAOYSA-N

> <Salt_Solvent>


> <Salt_Solvent_ID>
0

> <Number of connected components>
1

$$$$
Molecule_850
  Mrv2316 01072400032D          

 12 12  0  0  0  0            999 V2000
    2.3816   -1.6500    0.0000 C   0  0  0  0  0  0  0  0  0  0  0  0
    2.3816   -0.8250    0.0000 O   0  0  0  0  0  0  0  0  0  0  0  0
    1.6671   -0.4125    0.0000 C   0  0  0  0  0  0  0  0  0  0  0  0
    1.6671    0.4125    0.0000 C   0  0  0  0  0  0  0  0  0  0  0  0
    0.9526    0.8250    0.0000 C   0  0  0  0  0  0  0  0  0  0  0  0
    0.9526    1.6500    0.0000 C   0  0  0  0  0  0  0  0  0  0  0  0
    0.9526    2.4750    0.0000 F   0  0  0  0  0  0  0  0  0  0  0  0
    1.7776    1.6500    0.0000 F   0  0  0  0  0  0  0  0  0  0  0  0
    0.1276    1.6500    0.0000 F   0  0  0  0  0  0  0  0  0  0  0  0
    0.2382    0.4125    0.0000 C   0  0  0  0  0  0  0  0  0  0  0  0
    0.2382   -0.4125    0.0000 C   0  0  0  0  0  0  0  0  0  0  0  0
    0.9526   -0.8250    0.0000 N   0  0  0  0  0  0  0  0  0  0  0  0
  1  2  1  0  0  0  0
  2  3  1  0  0  0  0
  4  3  2  0  0  0  0
  5  4  1  0  0  0  0
  5  6  1  0  0  0  0
  6  7  1  0  0  0  0
  6  8  1  0  0  0  0
  6  9  1  0  0  0  0
 10  5  2  0  0  0  0
 11 10  1  0  0  0  0
 12 11  2  0  0  0  0
  3 12  1  0  0  0  0
M  END
> <RowID>
850

> <Original_SMILES>
COC1=CC(=CC=N1)C(F)(F)F

> <Canonical_QSARr>
COC1=CC(=CC=N1)C(F)(F)F

> <InChI_Code_QSARr>
InChI=1S/C7H6F3NO/c1-12-6-4-5(2-3-11-6)7(8,9)10/h2-4H,1H3

> <InChI Key_QSARr>
BYGXVIBRFSQTPY-UHFFFAOYSA-N

> <Salt_Solvent>


> <Salt_Solvent_ID>
0

> <Number of connected components>
1

$$$$
Molecule_851
  Mrv2316 01072400032D          

 58 63  0  0  0  0            999 V2000
    0.1478  -11.6638    0.0000 O   0  0  0  0  0  0  0  0  0  0  0  0
    0.8623  -11.2513    0.0000 S   0  0  0  0  0  0  0  0  0  0  0  0
    1.2748  -11.9658    0.0000 O   0  0  0  0  0  0  0  0  0  0  0  0
    0.4498  -10.5368    0.0000 O   0  0  0  0  0  0  0  0  0  0  0  0
    1.5767  -10.8388    0.0000 C   0  0  0  0  0  0  0  0  0  0  0  0
    2.2912  -11.2513    0.0000 C   0  0  0  0  0  0  0  0  0  0  0  0
    3.0057  -10.8388    0.0000 C   0  0  0  0  0  0  0  0  0  0  0  0
    3.0057  -10.0138    0.0000 C   0  0  0  0  0  0  0  0  0  0  0  0
    2.2912   -9.6013    0.0000 C   0  0  0  0  0  0  0  0  0  0  0  0
    2.2912   -8.7763    0.0000 N   0  0  0  0  0  0  0  0  0  0  0  0
    3.0057   -8.3638    0.0000 N   0  0  0  0  0  0  0  0  0  0  0  0
    3.7202   -8.7763    0.0000 C   0  0  0  0  0  0  0  0  0  0  0  0
    3.7202   -9.6013    0.0000 C   0  0  0  0  0  0  0  0  0  0  0  0
    4.4346  -10.0138    0.0000 C   0  0  0  0  0  0  0  0  0  0  0  0
    5.1491   -9.6013    0.0000 C   0  0  0  0  0  0  0  0  0  0  0  0
    5.8636  -10.0138    0.0000 N   0  0  0  0  0  0  0  0  0  0  0  0
    6.5780   -9.6013    0.0000 C   0  0  0  0  0  0  0  0  0  0  0  0
    7.2925  -10.0138    0.0000 N   0  0  0  0  0  0  0  0  0  0  0  0
    8.0070   -9.6013    0.0000 C   0  0  0  0  0  0  0  0  0  0  0  0
    8.7215  -10.0138    0.0000 N   0  0  0  0  0  0  0  0  0  0  0  0
    9.4359   -9.6013    0.0000 C   0  0  0  0  0  0  0  0  0  0  0  0
   10.1504  -10.0138    0.0000 C   0  0  0  0  0  0  0  0  0  0  0  0
   10.8649   -9.6013    0.0000 C   0  0  0  0  0  0  0  0  0  0  0  0
   10.8649   -8.7763    0.0000 C   0  0  0  0  0  0  0  0  0  0  0  0
   11.5793   -8.3638    0.0000 N   0  0  0  0  0  0  0  0  0  0  0  0
   11.5793   -7.5388    0.0000 N   0  0  0  0  0  0  0  0  0  0  0  0
   12.2938   -7.1263    0.0000 C   0  0  0  0  0  0  0  0  0  0  0  0
   13.0083   -7.5388    0.0000 C   0  0  0  0  0  0  0  0  0  0  0  0
   13.7228   -7.1263    0.0000 C   0  0  0  0  0  0  0  0  0  0  0  0
   13.7228   -6.3013    0.0000 C   0  0  0  0  0  0  0  0  0  0  0  0
   13.0083   -5.8888    0.0000 C   0  0  0  0  0  0  0  0  0  0  0  0
   13.0083   -5.0638    0.0000 S   0  0  0  0  0  0  0  0  0  0  0  0
   13.0083   -4.2388    0.0000 O   0  0  0  0  0  0  0  0  0  0  0  0
   13.8333   -5.0638    0.0000 O   0  0  0  0  0  0  0  0  0  0  0  0
   12.1833   -5.0638    0.0000 O   0  0  0  0  0  0  0  0  0  0  0  0
   12.2938   -6.3013    0.0000 C   0  0  0  0  0  0  0  0  0  0  0  0
   10.1504   -8.3638    0.0000 C   0  0  0  0  0  0  0  0  0  0  0  0
   10.1504   -7.5388    0.0000 N   0  0  0  0  0  0  0  0  0  0  0  0
    9.4359   -7.1263    0.0000 C   0  0  0  0  0  0  0  0  0  0  0  0
    8.7215   -7.5388    0.0000 C   0  0  0  0  0  0  0  0  0  0  0  0
    9.4359   -6.3013    0.0000 O   0  0  0  0  0  0  0  0  0  0  0  0
    9.4359   -8.7763    0.0000 C   0  0  0  0  0  0  0  0  0  0  0  0
    8.0070   -8.7763    0.0000 N   0  0  0  0  0  0  0  0  0  0  0  0
    7.2925   -8.3638    0.0000 C   0  0  0  0  0  0  0  0  0  0  0  0
    7.2925   -7.5388    0.0000 N   0  0  0  0  0  0  0  0  0  0  0  0
    8.0070   -7.1263    0.0000 C   0  0  0  0  0  0  0  0  0  0  0  0
    8.0070   -6.3013    0.0000 C   0  0  0  0  0  0  0  0  0  0  0  0
    7.2925   -5.8888    0.0000 O   0  0  0  0  0  0  0  0  0  0  0  0
    6.5780   -6.3013    0.0000 C   0  0  0  0  0  0  0  0  0  0  0  0
    6.5780   -7.1263    0.0000 C   0  0  0  0  0  0  0  0  0  0  0  0
    6.5780   -8.7763    0.0000 N   0  0  0  0  0  0  0  0  0  0  0  0
    5.1491   -8.7763    0.0000 C   0  0  0  0  0  0  0  0  0  0  0  0
    4.4346   -8.3638    0.0000 C   0  0  0  0  0  0  0  0  0  0  0  0
    4.4346   -7.5388    0.0000 N   0  0  0  0  0  0  0  0  0  0  0  0
    3.7202   -7.1263    0.0000 C   0  0  0  0  0  0  0  0  0  0  0  0
    3.7202   -6.3013    0.0000 O   0  0  0  0  0  0  0  0  0  0  0  0
    3.0057   -7.5388    0.0000 C   0  0  0  0  0  0  0  0  0  0  0  0
    1.5767  -10.0138    0.0000 C   0  0  0  0  0  0  0  0  0  0  0  0
  1  2  1  0  0  0  0
  2  3  2  0  0  0  0
  2  4  2  0  0  0  0
  2  5  1  0  0  0  0
  6  5  1  0  0  0  0
  7  6  2  0  0  0  0
  8  7  1  0  0  0  0
  9  8  2  0  0  0  0
 10  9  1  4  0  0  0
 10 11  2  0  0  0  0
 11 12  1  0  0  0  0
 13 12  2  0  0  0  0
 14 13  1  0  0  0  0
 15 14  2  0  0  0  0
 15 16  1  0  0  0  0
 16 17  1  0  0  0  0
 18 17  1  0  0  0  0
 19 18  2  0  0  0  0
 19 20  1  0  0  0  0
 20 21  1  0  0  0  0
 22 21  1  0  0  0  0
 23 22  2  0  0  0  0
 24 23  1  0  0  0  0
 25 24  1  4  0  0  0
 25 26  2  0  0  0  0
 26 27  1  0  0  0  0
 28 27  2  0  0  0  0
 29 28  1  0  0  0  0
 30 29  2  0  0  0  0
 31 30  1  0  0  0  0
 31 32  1  0  0  0  0
 32 33  1  0  0  0  0
 32 34  2  0  0  0  0
 32 35  2  0  0  0  0
 36 31  2  0  0  0  0
 27 36  1  0  0  0  0
 37 24  2  0  0  0  0
 37 38  1  0  0  0  0
 38 39  1  0  0  0  0
 39 40  1  0  0  0  0
 39 41  2  0  0  0  0
 42 37  1  0  0  0  0
 21 42  2  0  0  0  0
 43 19  1  0  0  0  0
 44 43  2  0  0  0  0
 44 45  1  0  0  0  0
 46 45  1  0  0  0  0
 47 46  1  0  0  0  0
 48 47  1  0  0  0  0
 49 48  1  0  0  0  0
 50 49  1  0  0  0  0
 45 50  1  0  0  0  0
 51 44  1  0  0  0  0
 17 51  2  0  0  0  0
 52 15  1  0  0  0  0
 53 52  2  0  0  0  0
 12 53  1  0  0  0  0
 53 54  1  0  0  0  0
 54 55  1  0  0  0  0
 55 56  2  0  0  0  0
 55 57  1  0  0  0  0
 58  9  1  0  0  0  0
  5 58  2  0  0  0  0
M  END
> <RowID>
851

> <Original_SMILES>
[Na+].[Na+].CC(=O)NC1C=C(C=CC=1N=NC1C=C(C=CC=1)S([O-])(=O)=O)NC1N=C(N=C(NC2=CC(NC(C)=O)=C(C=C2)N=NC2C=C(C=CC=2)S([O-])(=O)=O)N=1)N1CCOCC1

> <Canonical_QSARr>
CC(=O)NC1=CC(=CC=C1N=NC1C=C(C=CC=1)S(O)(=O)=O)NC1N=C(NC2=CC(NC(C)=O)=C(C=C2)N=NC2C=C(C=CC=2)S(O)(=O)=O)N=C(N=1)N1CCOCC1

> <InChI_Code_QSARr>
InChI=1S/C35H34N12O9S2/c1-21(48)36-31-19-23(9-11-29(31)45-43-25-5-3-7-27(17-25)57(50,51)52)38-33-40-34(42-35(41-33)47-13-15-56-16-14-47)39-24-10-12-30(32(20-24)37-22(2)49)46-44-26-6-4-8-28(18-26)58(53,54)55/h3-12,17-20H,13-16H2,1-2H3,(H,36,48)(H,37,49)(H,50,51,52)(H,53,54,55)(H2,38,39,40,41,42)

> <InChI Key_QSARr>
WKEYWQIQMDQTHE-UHFFFAOYSA-N

> <Salt_Solvent>
[Na+]

> <Salt_Solvent_ID>
110

> <Number of connected components>
3

$$$$
Molecule_852
  Mrv2316 01072400032D          

 24 26  0  0  0  0            999 V2000
   -3.9485    0.0539    0.0000 C   0  0  0  0  0  0  0  0  0  0  0  0
   -3.1235    0.0539    0.0000 C   0  0  0  0  0  0  0  0  0  0  0  0
   -2.7110    0.7684    0.0000 O   0  0  0  0  0  0  0  0  0  0  0  0
   -2.7110   -0.6605    0.0000 O   0  0  0  0  0  0  0  0  0  0  0  0
   -1.8860   -0.6605    0.0000 N   0  0  0  0  0  0  0  0  0  0  0  0
   -1.4735   -1.3750    0.0000 C   0  0  0  0  0  0  0  0  0  0  0  0
   -1.8860   -2.0895    0.0000 C   0  0  0  0  0  0  0  0  0  0  0  0
   -2.7064   -2.1757    0.0000 C   0  0  0  0  0  0  0  0  0  0  0  0
   -2.8780   -2.9827    0.0000 S   0  0  0  0  0  0  0  0  0  0  0  0
   -2.1635   -3.3952    0.0000 C   0  0  0  0  0  0  0  0  0  0  0  0
   -2.0773   -4.2157    0.0000 N   0  0  0  0  0  0  0  0  0  0  0  0
   -1.5504   -2.8432    0.0000 N   0  0  0  0  0  0  0  0  0  0  0  0
   -0.6485   -1.3750    0.0000 C   0  0  0  0  0  0  0  0  0  0  0  0
   -0.2360   -2.0895    0.0000 O   0  0  0  0  0  0  0  0  0  0  0  0
   -0.2360   -0.6605    0.0000 S   0  0  0  0  0  0  0  0  0  0  0  0
    0.5890   -0.6605    0.0000 C   0  0  0  0  0  0  0  0  0  0  0  0
    1.0740    0.0069    0.0000 N   0  0  0  0  0  0  0  0  0  0  0  0
    1.8586   -0.2480    0.0000 C   0  0  0  0  0  0  0  0  0  0  0  0
    2.5730    0.1645    0.0000 C   0  0  0  0  0  0  0  0  0  0  0  0
    3.2875   -0.2480    0.0000 C   0  0  0  0  0  0  0  0  0  0  0  0
    3.2875   -1.0730    0.0000 C   0  0  0  0  0  0  0  0  0  0  0  0
    2.5730   -1.4855    0.0000 C   0  0  0  0  0  0  0  0  0  0  0  0
    1.8586   -1.0730    0.0000 C   0  0  0  0  0  0  0  0  0  0  0  0
    1.0740   -1.3280    0.0000 S   0  0  0  0  0  0  0  0  0  0  0  0
  1  2  1  0  0  0  0
  2  3  2  0  0  0  0
  2  4  1  0  0  0  0
  5  4  1  4  0  0  0
  5  6  2  0  0  0  0
  6  7  1  0  0  0  0
  8  7  2  0  0  0  0
  9  8  1  0  0  0  0
 10  9  1  0  0  0  0
 10 11  1  0  0  0  0
 12 10  2  0  0  0  0
  7 12  1  0  0  0  0
  6 13  1  0  0  0  0
 13 14  2  0  0  0  0
 13 15  1  0  0  0  0
 15 16  1  0  0  0  0
 17 16  2  0  0  0  0
 18 17  1  0  0  0  0
 18 19  1  0  0  0  0
 19 20  2  0  0  0  0
 20 21  1  0  0  0  0
 21 22  2  0  0  0  0
 22 23  1  0  0  0  0
 23 18  2  0  0  0  0
 24 23  1  0  0  0  0
 16 24  1  0  0  0  0
M  END
> <RowID>
852

> <Original_SMILES>
CC(=O)ON=C(C1=CSC(N)=N1)C(=O)SC1=NC2C=CC=CC=2S1

> <Canonical_QSARr>
CC(=O)ON=C(C1=CSC(N)=N1)C(=O)SC1=NC2C=CC=CC=2S1

> <InChI_Code_QSARr>
InChI=1S/C14H10N4O3S3/c1-7(19)21-18-11(9-6-22-13(15)16-9)12(20)24-14-17-8-4-2-3-5-10(8)23-14/h2-6H,1H3,(H2,15,16)

> <InChI Key_QSARr>
YFYDYMYITUSDEE-UHFFFAOYSA-N

> <Salt_Solvent>


> <Salt_Solvent_ID>
0

> <Number of connected components>
1

$$$$
Molecule_853
  Mrv2316 01072400032D          

  9  8  0  0  0  0            999 V2000
    2.9980    2.5559    0.0000 C   0  0  0  0  0  0  0  0  0  0  0  0
    3.7125    2.1434    0.0000 C   0  0  0  0  0  0  0  0  0  0  0  0
    4.4270    2.5559    0.0000 O   0  0  0  0  0  0  0  0  0  0  0  0
    5.1414    2.1434    0.0000 C   0  0  0  0  0  0  0  0  0  0  0  0
    5.8559    2.5559    0.0000 C   0  0  0  0  0  0  0  0  0  0  0  0
    6.5704    2.1434    0.0000 O   0  0  0  0  0  0  0  0  0  0  0  0
    7.2849    2.5559    0.0000 C   0  0  0  0  0  0  0  0  0  0  0  0
    7.9993    2.1434    0.0000 C   0  0  0  0  0  0  0  0  0  0  0  0
    8.7138    2.5559    0.0000 O   0  0  0  0  0  0  0  0  0  0  0  0
  1  2  1  0  0  0  0
  2  3  1  0  0  0  0
  3  4  1  0  0  0  0
  4  5  1  0  0  0  0
  5  6  1  0  0  0  0
  6  7  1  0  0  0  0
  7  8  1  0  0  0  0
  8  9  1  0  0  0  0
M  END
> <RowID>
853

> <Original_SMILES>
CCOCCOCCO

> <Canonical_QSARr>
CCOCCOCCO

> <InChI_Code_QSARr>
InChI=1S/C6H14O3/c1-2-8-5-6-9-4-3-7/h7H,2-6H2,1H3

> <InChI Key_QSARr>
XXJWXESWEXIICW-UHFFFAOYSA-N

> <Salt_Solvent>


> <Salt_Solvent_ID>
0

> <Number of connected components>
1

$$$$
Molecule_854
  Mrv2316 01072400032D          

 19 18  0  0  0  0            999 V2000
    4.2355    3.2704    0.0000 O   0  0  0  0  0  0  0  0  0  0  0  0
    4.9500    2.8579    0.0000 C   0  0  0  0  0  0  0  0  0  0  0  0
    4.9500    2.0329    0.0000 O   0  0  0  0  0  0  0  0  0  0  0  0
    5.6645    3.2704    0.0000 C   0  0  0  0  0  0  0  0  0  0  0  0
    6.3789    2.8579    0.0000 C   0  0  0  0  0  0  0  0  0  0  0  0
    7.0934    3.2704    0.0000 C   0  0  0  0  0  0  0  0  0  0  0  0
    7.8079    2.8579    0.0000 C   0  0  0  0  0  0  0  0  0  0  0  0
    8.5224    3.2704    0.0000 C   0  0  0  0  0  0  0  0  0  0  0  0
    9.2368    2.8579    0.0000 N   0  0  0  0  0  0  0  0  0  0  0  0
    9.9513    3.2704    0.0000 C   0  0  0  0  0  0  0  0  0  0  0  0
   10.6658    2.8579    0.0000 C   0  0  0  0  0  0  0  0  0  0  0  0
   11.3802    3.2704    0.0000 C   0  0  0  0  0  0  0  0  0  0  0  0
   11.3802    4.0954    0.0000 C   0  0  0  0  0  0  0  0  0  0  0  0
   12.0947    2.8579    0.0000 C   0  0  0  0  0  0  0  0  0  0  0  0
   12.8092    3.2704    0.0000 C   0  0  0  0  0  0  0  0  0  0  0  0
   13.5237    3.6829    0.0000 C   0  0  0  0  0  0  0  0  0  0  0  0
   13.2217    2.5559    0.0000 C   0  0  0  0  0  0  0  0  0  0  0  0
   12.3967    3.9849    0.0000 C   0  0  0  0  0  0  0  0  0  0  0  0
    9.9513    4.0954    0.0000 O   0  0  0  0  0  0  0  0  0  0  0  0
  1  2  1  0  0  0  0
  2  3  2  0  0  0  0
  2  4  1  0  0  0  0
  4  5  1  0  0  0  0
  5  6  1  0  0  0  0
  6  7  1  0  0  0  0
  7  8  1  0  0  0  0
  8  9  1  0  0  0  0
  9 10  1  0  0  0  0
 10 11  1  0  0  0  0
 11 12  1  0  0  0  0
 12 13  1  0  0  0  0
 12 14  1  0  0  0  0
 14 15  1  0  0  0  0
 15 16  1  0  0  0  0
 15 17  1  0  0  0  0
 15 18  1  0  0  0  0
 10 19  2  0  0  0  0
M  END
> <RowID>
854

> <Original_SMILES>
CC(CC(=O)NCCCCCC([O-])=O)CC(C)(C)C.OCC[NH+](CCO)CCO

> <Canonical_QSARr>
CC(CC(=O)NCCCCCC(O)=O)CC(C)(C)C

> <InChI_Code_QSARr>
InChI=1S/C15H29NO3/c1-12(11-15(2,3)4)10-13(17)16-9-7-5-6-8-14(18)19/h12H,5-11H2,1-4H3,(H,16,17)(H,18,19)

> <InChI Key_QSARr>
UWHPFAYMOQMPMB-UHFFFAOYSA-N

> <Salt_Solvent>
OCC[NH+](CCO)CCO

> <Salt_Solvent_ID>
3118

> <Number of connected components>
2

$$$$
Molecule_855
  Mrv2316 01072400032D          

 11 10  0  0  0  0            999 V2000
    0.8250   -0.8250    0.0000 C   0  0  0  0  0  0  0  0  0  0  0  0
    0.8250    0.0000    0.0000 N   0  3  0  0  0  0  0  0  0  0  0  0
    0.8250    0.8250    0.0000 C   0  0  0  0  0  0  0  0  0  0  0  0
    0.1105    1.2375    0.0000 C   0  0  0  0  0  0  0  0  0  0  0  0
    0.1105    2.0625    0.0000 O   0  0  0  0  0  0  0  0  0  0  0  0
   -0.6039    2.4750    0.0000 C   0  0  0  0  0  0  0  0  0  0  0  0
   -0.6039    3.3000    0.0000 C   0  0  0  0  0  0  0  0  0  0  0  0
   -1.3184    3.7125    0.0000 C   0  0  0  0  0  0  0  0  0  0  0  0
   -1.3184    2.0625    0.0000 O   0  0  0  0  0  0  0  0  0  0  0  0
    1.6500   -0.0000    0.0000 C   0  0  0  0  0  0  0  0  0  0  0  0
    0.0000    0.0000    0.0000 C   0  0  0  0  0  0  0  0  0  0  0  0
  1  2  1  0  0  0  0
  2  3  1  0  0  0  0
  3  4  1  0  0  0  0
  4  5  1  0  0  0  0
  5  6  1  0  0  0  0
  6  7  1  0  0  0  0
  7  8  2  0  0  0  0
  6  9  2  0  0  0  0
  2 10  1  0  0  0  0
  2 11  1  0  0  0  0
M  CHG  1   2   1
M  END
> <RowID>
855

> <Original_SMILES>
[Cl-].C[N+](C)(C)CCOC(=O)C=C

> <Canonical_QSARr>
C[N+](C)(C)CCOC(=O)C=C

> <InChI_Code_QSARr>
InChI=1S/C8H16NO2/c1-5-8(10)11-7-6-9(2,3)4/h5H,1,6-7H2,2-4H3/q+1

> <InChI Key_QSARr>
AIUAMYPYEUQVEM-UHFFFAOYSA-N

> <Salt_Solvent>
[Cl-]

> <Salt_Solvent_ID>
170

> <Number of connected components>
2

$$$$
Molecule_856
  Mrv2316 01072400032D          

  3  2  0  0  0  0            999 V2000
    1.2375   -0.7145    0.0000 C   0  0  0  0  0  0  0  0  0  0  0  0
    1.9520   -1.1270    0.0000 C   0  0  0  0  0  0  0  0  0  0  0  0
    2.6664   -0.7145    0.0000 O   0  0  0  0  0  0  0  0  0  0  0  0
  1  2  1  0  0  0  0
  2  3  1  0  0  0  0
M  END
> <RowID>
856

> <Original_SMILES>
CCO

> <Canonical_QSARr>
CCO

> <InChI_Code_QSARr>
InChI=1S/C2H6O/c1-2-3/h3H,2H2,1H3

> <InChI Key_QSARr>
LFQSCWFLJHTTHZ-UHFFFAOYSA-N

> <Salt_Solvent>


> <Salt_Solvent_ID>
0

> <Number of connected components>
1

$$$$
Molecule_857
  Mrv2316 01072400032D          

  7  6  0  0  0  0            999 V2000
    0.1105   -1.2375    0.0000 C   0  0  0  0  0  0  0  0  0  0  0  0
    0.8250   -0.8250    0.0000 C   0  0  0  0  0  0  0  0  0  0  0  0
    1.5395   -1.2375    0.0000 Br  0  0  0  0  0  0  0  0  0  0  0  0
    0.8250   -0.0000    0.0000 C   0  0  0  0  0  0  0  0  0  0  0  0
    0.8250    0.8250    0.0000 F   0  0  0  0  0  0  0  0  0  0  0  0
    1.6500   -0.0000    0.0000 F   0  0  0  0  0  0  0  0  0  0  0  0
    0.0000   -0.0000    0.0000 F   0  0  0  0  0  0  0  0  0  0  0  0
  1  2  2  0  0  0  0
  2  3  1  0  0  0  0
  2  4  1  0  0  0  0
  4  5  1  0  0  0  0
  4  6  1  0  0  0  0
  4  7  1  0  0  0  0
M  END
> <RowID>
857

> <Original_SMILES>
C=C(Br)C(F)(F)F

> <Canonical_QSARr>
C=C(Br)C(F)(F)F

> <InChI_Code_QSARr>
InChI=1S/C3H2BrF3/c1-2(4)3(5,6)7/h1H2

> <InChI Key_QSARr>
QKBKGNDTLQFSEU-UHFFFAOYSA-N

> <Salt_Solvent>


> <Salt_Solvent_ID>
0

> <Number of connected components>
1

$$$$
Molecule_858
  Mrv2316 01072400032D          

 32 35  0  0  0  0            999 V2000
    0.2903    3.1067    0.0000 C   0  0  0  0  0  0  0  0  0  0  0  0
    0.2903    2.2817    0.0000 O   0  0  0  0  0  0  0  0  0  0  0  0
   -0.4242    1.8692    0.0000 C   0  0  0  0  0  0  0  0  0  0  0  0
   -1.1387    2.2817    0.0000 C   0  0  0  0  0  0  0  0  0  0  0  0
   -1.8532    1.8692    0.0000 C   0  0  0  0  0  0  0  0  0  0  0  0
   -1.8532    1.0442    0.0000 C   0  0  0  0  0  0  0  0  0  0  0  0
   -1.1387    0.6317    0.0000 C   0  0  0  0  0  0  0  0  0  0  0  0
   -0.4242    1.0442    0.0000 C   0  0  0  0  0  0  0  0  0  0  0  0
    0.2903    0.6317    0.0000 N   0  0  0  0  0  0  0  0  0  0  0  0
    0.2903   -0.1933    0.0000 C   0  0  0  0  0  0  0  0  0  0  0  0
   -0.4242   -0.6058    0.0000 O   0  0  0  0  0  0  0  0  0  0  0  0
    1.0047   -0.6058    0.0000 C   0  0  0  0  0  0  0  0  0  0  0  0
    1.7192   -0.1933    0.0000 C   0  0  0  0  0  0  0  0  0  0  0  0
    2.4337   -0.6058    0.0000 C   0  0  0  0  0  0  0  0  0  0  0  0
    3.1481   -0.1933    0.0000 C   0  0  0  0  0  0  0  0  0  0  0  0
    3.8626   -0.6058    0.0000 C   0  0  0  0  0  0  0  0  0  0  0  0
    3.8626   -1.4308    0.0000 C   0  0  0  0  0  0  0  0  0  0  0  0
    3.1481   -1.8433    0.0000 C   0  0  0  0  0  0  0  0  0  0  0  0
    2.4337   -1.4308    0.0000 C   0  0  0  0  0  0  0  0  0  0  0  0
    1.7192   -1.8433    0.0000 C   0  0  0  0  0  0  0  0  0  0  0  0
    1.7192   -2.6683    0.0000 N   0  0  0  0  0  0  0  0  0  0  0  0
    1.0047   -3.0808    0.0000 N   0  0  0  0  0  0  0  0  0  0  0  0
    1.0047   -3.9058    0.0000 C   0  0  0  0  0  0  0  0  0  0  0  0
    0.2903   -4.3183    0.0000 C   0  0  0  0  0  0  0  0  0  0  0  0
    0.2903   -5.1433    0.0000 C   0  0  0  0  0  0  0  0  0  0  0  0
   -0.4242   -5.5558    0.0000 Cl  0  0  0  0  0  0  0  0  0  0  0  0
    1.0047   -5.5558    0.0000 C   0  0  0  0  0  0  0  0  0  0  0  0
    1.7192   -5.1433    0.0000 C   0  0  0  0  0  0  0  0  0  0  0  0
    1.7192   -4.3183    0.0000 C   0  0  0  0  0  0  0  0  0  0  0  0
    2.4337   -3.9058    0.0000 Cl  0  0  0  0  0  0  0  0  0  0  0  0
    1.0047   -1.4308    0.0000 C   0  0  0  0  0  0  0  0  0  0  0  0
    0.2903   -1.8433    0.0000 O   0  0  0  0  0  0  0  0  0  0  0  0
  1  2  1  0  0  0  0
  2  3  1  0  0  0  0
  4  3  1  0  0  0  0
  5  4  2  0  0  0  0
  6  5  1  0  0  0  0
  7  6  2  0  0  0  0
  8  7  1  0  0  0  0
  3  8  2  0  0  0  0
  8  9  1  0  0  0  0
  9 10  1  0  0  0  0
 10 11  2  0  0  0  0
 10 12  1  0  0  0  0
 13 12  1  0  0  0  0
 14 13  2  0  0  0  0
 14 15  1  0  0  0  0
 15 16  2  0  0  0  0
 16 17  1  0  0  0  0
 17 18  2  0  0  0  0
 18 19  1  0  0  0  0
 19 14  1  0  0  0  0
 20 19  2  0  0  0  0
 21 20  1  4  0  0  0
 21 22  2  0  0  0  0
 22 23  1  0  0  0  0
 24 23  1  0  0  0  0
 25 24  2  0  0  0  0
 25 26  1  0  0  0  0
 27 25  1  0  0  0  0
 28 27  2  0  0  0  0
 29 28  1  0  0  0  0
 23 29  2  0  0  0  0
 29 30  1  0  0  0  0
 31 20  1  0  0  0  0
 12 31  2  0  0  0  0
 31 32  1  0  0  0  0
M  END
> <RowID>
858

> <Original_SMILES>
COC1C=CC=CC=1NC(=O)C1C=C2C=CC=CC2=C(N=NC2C=C(Cl)C=CC=2Cl)C=1O

> <Canonical_QSARr>
COC1C=CC=CC=1NC(=O)C1C=C2C=CC=CC2=C(N=NC2C=C(Cl)C=CC=2Cl)C=1O

> <InChI_Code_QSARr>
InChI=1S/C24H17Cl2N3O3/c1-32-21-9-5-4-8-19(21)27-24(31)17-12-14-6-2-3-7-16(14)22(23(17)30)29-28-20-13-15(25)10-11-18(20)26/h2-13,30H,1H3,(H,27,31)

> <InChI Key_QSARr>
IBVDQFFVBKPVPB-UHFFFAOYSA-N

> <Salt_Solvent>


> <Salt_Solvent_ID>
0

> <Number of connected components>
1

$$$$
Molecule_859
  Mrv2316 01072400032D          

 19 18  0  0  0  0            999 V2000
   -0.5743    3.6316    0.0000 C   0  0  0  0  0  0  0  0  0  0  0  0
   -0.5743    2.8066    0.0000 C   0  0  0  0  0  0  0  0  0  0  0  0
    0.1401    2.3941    0.0000 C   0  0  0  0  0  0  0  0  0  0  0  0
    0.1401    1.5691    0.0000 C   0  0  0  0  0  0  0  0  0  0  0  0
    0.8546    1.1566    0.0000 C   0  0  0  0  0  0  0  0  0  0  0  0
    0.8546    0.3316    0.0000 C   0  0  0  0  0  0  0  0  0  0  0  0
    1.5691   -0.0809    0.0000 C   0  0  0  0  0  0  0  0  0  0  0  0
    1.5691   -0.9059    0.0000 C   0  0  0  0  0  0  0  0  0  0  0  0
    2.2836   -1.3184    0.0000 C   0  0  0  0  0  0  0  0  0  0  0  0
    2.2836   -2.1434    0.0000 C   0  0  0  0  0  0  0  0  0  0  0  0
    2.9980   -2.5559    0.0000 C   0  0  0  0  0  0  0  0  0  0  0  0
    3.7125   -2.1434    0.0000 C   0  0  0  0  0  0  0  0  0  0  0  0
    4.4270   -2.5559    0.0000 C   0  0  0  0  0  0  0  0  0  0  0  0
    5.1414   -2.1434    0.0000 C   0  0  0  0  0  0  0  0  0  0  0  0
    5.8559   -2.5559    0.0000 C   0  0  0  0  0  0  0  0  0  0  0  0
    6.5704   -2.1434    0.0000 C   0  0  0  0  0  0  0  0  0  0  0  0
    7.2849   -2.5559    0.0000 C   0  0  0  0  0  0  0  0  0  0  0  0
    7.9993   -2.1434    0.0000 C   0  0  0  0  0  0  0  0  0  0  0  0
    8.7138   -1.7309    0.0000 N   0  0  0  0  0  0  0  0  0  0  0  0
  1  2  1  0  0  0  0
  2  3  1  0  0  0  0
  3  4  1  0  0  0  0
  4  5  1  0  0  0  0
  5  6  1  0  0  0  0
  6  7  1  0  0  0  0
  7  8  1  0  0  0  0
  9  8  1  4  0  0  0
  9 10  2  0  0  0  0
 10 11  1  0  0  0  0
 11 12  1  0  0  0  0
 12 13  1  0  0  0  0
 13 14  1  0  0  0  0
 14 15  1  0  0  0  0
 15 16  1  0  0  0  0
 16 17  1  0  0  0  0
 17 18  1  0  0  0  0
 18 19  3  0  0  0  0
M  END
> <RowID>
859

> <Original_SMILES>
CCCCCCCCC=CCCCCCCCC#N

> <Canonical_QSARr>
CCCCCCCCC=CCCCCCCCC#N

> <InChI_Code_QSARr>
InChI=1S/C18H33N/c1-2-3-4-5-6-7-8-9-10-11-12-13-14-15-16-17-18-19/h9-10H,2-8,11-17H2,1H3

> <InChI Key_QSARr>
UIAMCVSNZQYIQS-UHFFFAOYSA-N

> <Salt_Solvent>


> <Salt_Solvent_ID>
0

> <Number of connected components>
1

$$$$
Molecule_861
  Mrv2316 01072400032D          

  7  6  0  0  0  0            999 V2000
   -0.1914    0.7145    0.0000 C   0  0  0  0  0  0  0  0  0  0  0  0
    0.5230    1.1270    0.0000 O   0  0  0  0  0  0  0  0  0  0  0  0
    1.2375    0.7145    0.0000 C   0  0  0  0  0  0  0  0  0  0  0  0
    1.2375   -0.1105    0.0000 C   0  0  0  0  0  0  0  0  0  0  0  0
    1.9520    1.1270    0.0000 C   0  0  0  0  0  0  0  0  0  0  0  0
    2.6664    0.7145    0.0000 C   0  0  0  0  0  0  0  0  0  0  0  0
    3.3809    1.1270    0.0000 O   0  0  0  0  0  0  0  0  0  0  0  0
  1  2  1  0  0  0  0
  2  3  1  0  0  0  0
  3  4  1  0  0  0  0
  3  5  1  0  0  0  0
  5  6  1  0  0  0  0
  6  7  1  0  0  0  0
M  END
> <RowID>
861

> <Original_SMILES>
COC(C)CCO

> <Canonical_QSARr>
COC(C)CCO

> <InChI_Code_QSARr>
InChI=1S/C5H12O2/c1-5(7-2)3-4-6/h5-6H,3-4H2,1-2H3

> <InChI Key_QSARr>
JSGVZVOGOQILFM-UHFFFAOYSA-N

> <Salt_Solvent>


> <Salt_Solvent_ID>
0

> <Number of connected components>
1

$$$$
Molecule_862
  Mrv2316 01072400032D          

 16 17  0  0  0  0            999 V2000
    2.1353   -2.3371    0.0000 Cl  0  0  0  0  0  0  0  0  0  0  0  0
    2.8498   -2.7496    0.0000 C   0  0  0  0  0  0  0  0  0  0  0  0
    3.5643   -2.3371    0.0000 C   0  0  0  0  0  0  0  0  0  0  0  0
    4.2787   -2.7496    0.0000 C   0  0  0  0  0  0  0  0  0  0  0  0
    4.9932   -2.3371    0.0000 C   0  0  0  0  0  0  0  0  0  0  0  0
    5.7077   -2.7496    0.0000 C   0  0  0  0  0  0  0  0  0  0  0  0
    5.7939   -3.5701    0.0000 N   0  0  0  0  0  0  0  0  0  0  0  0
    6.6009   -3.7416    0.0000 N   0  0  0  0  0  0  0  0  0  0  0  0
    7.0134   -3.0271    0.0000 N   0  0  0  0  0  0  0  0  0  0  0  0
    6.4613   -2.4140    0.0000 N   0  0  0  0  0  0  0  0  0  0  0  0
    6.6329   -1.6071    0.0000 C   0  0  0  0  0  0  0  0  0  0  0  0
    7.4175   -1.3521    0.0000 C   0  0  0  0  0  0  0  0  0  0  0  0
    7.5890   -0.5451    0.0000 C   0  0  0  0  0  0  0  0  0  0  0  0
    6.9759    0.0069    0.0000 C   0  0  0  0  0  0  0  0  0  0  0  0
    6.1913   -0.2480    0.0000 C   0  0  0  0  0  0  0  0  0  0  0  0
    6.0198   -1.0550    0.0000 C   0  0  0  0  0  0  0  0  0  0  0  0
  1  2  1  0  0  0  0
  2  3  1  0  0  0  0
  3  4  1  0  0  0  0
  4  5  1  0  0  0  0
  5  6  1  0  0  0  0
  7  6  2  0  0  0  0
  8  7  1  0  0  0  0
  9  8  2  0  0  0  0
 10  9  1  0  0  0  0
  6 10  1  0  0  0  0
 10 11  1  0  0  0  0
 12 11  1  0  0  0  0
 13 12  1  0  0  0  0
 14 13  1  0  0  0  0
 15 14  1  0  0  0  0
 16 15  1  0  0  0  0
 11 16  1  0  0  0  0
M  END
> <RowID>
862

> <Original_SMILES>
ClCCCCC1=NN=NN1C1CCCCC1

> <Canonical_QSARr>
ClCCCCC1=NN=NN1C1CCCCC1

> <InChI_Code_QSARr>
InChI=1S/C11H19ClN4/c12-9-5-4-8-11-13-14-15-16(11)10-6-2-1-3-7-10/h10H,1-9H2

> <InChI Key_QSARr>
INTQSGGUSUSCTJ-UHFFFAOYSA-N

> <Salt_Solvent>


> <Salt_Solvent_ID>
0

> <Number of connected components>
1

$$$$
Molecule_863
  Mrv2316 01072400032D          

 24 26  0  0  0  0            999 V2000
   -4.4059    2.2687    0.0000 C   0  0  0  0  0  0  0  0  0  0  0  0
   -3.6914    1.8562    0.0000 C   0  0  0  0  0  0  0  0  0  0  0  0
   -2.9769    2.2687    0.0000 O   0  0  0  0  0  0  0  0  0  0  0  0
   -3.6914    1.0312    0.0000 N   0  0  0  0  0  0  0  0  0  0  0  0
   -2.9769    0.6187    0.0000 C   0  0  0  0  0  0  0  0  0  0  0  0
   -2.9769   -0.2063    0.0000 C   0  0  0  0  0  0  0  0  0  0  0  0
   -2.2625   -0.6188    0.0000 C   0  0  0  0  0  0  0  0  0  0  0  0
   -1.5480   -0.2063    0.0000 C   0  0  0  0  0  0  0  0  0  0  0  0
   -0.8335   -0.6188    0.0000 N   0  0  0  0  0  0  0  0  0  0  0  0
   -0.1191   -0.2062    0.0000 C   0  0  0  0  0  0  0  0  0  0  0  0
   -0.1191    0.6188    0.0000 O   0  0  0  0  0  0  0  0  0  0  0  0
    0.5954   -0.6187    0.0000 C   0  0  0  0  0  0  0  0  0  0  0  0
    1.3099   -0.2062    0.0000 C   0  0  0  0  0  0  0  0  0  0  0  0
    2.0244   -0.6187    0.0000 C   0  0  0  0  0  0  0  0  0  0  0  0
    2.7388   -0.2062    0.0000 C   0  0  0  0  0  0  0  0  0  0  0  0
    3.4533   -0.6187    0.0000 C   0  0  0  0  0  0  0  0  0  0  0  0
    3.4533   -1.4437    0.0000 C   0  0  0  0  0  0  0  0  0  0  0  0
    2.7388   -1.8562    0.0000 C   0  0  0  0  0  0  0  0  0  0  0  0
    2.0244   -1.4437    0.0000 C   0  0  0  0  0  0  0  0  0  0  0  0
    1.3099   -1.8562    0.0000 C   0  0  0  0  0  0  0  0  0  0  0  0
    0.5954   -1.4437    0.0000 C   0  0  0  0  0  0  0  0  0  0  0  0
   -0.1191   -1.8562    0.0000 O   0  0  0  0  0  0  0  0  0  0  0  0
   -1.5480    0.6187    0.0000 C   0  0  0  0  0  0  0  0  0  0  0  0
   -2.2625    1.0312    0.0000 C   0  0  0  0  0  0  0  0  0  0  0  0
  1  2  1  0  0  0  0
  2  3  2  0  0  0  0
  2  4  1  0  0  0  0
  4  5  1  0  0  0  0
  6  5  1  0  0  0  0
  7  6  2  0  0  0  0
  8  7  1  0  0  0  0
  8  9  1  0  0  0  0
  9 10  1  0  0  0  0
 10 11  2  0  0  0  0
 10 12  1  0  0  0  0
 13 12  1  0  0  0  0
 14 13  2  0  0  0  0
 14 15  1  0  0  0  0
 15 16  2  0  0  0  0
 16 17  1  0  0  0  0
 17 18  2  0  0  0  0
 18 19  1  0  0  0  0
 19 14  1  0  0  0  0
 20 19  2  0  0  0  0
 21 20  1  0  0  0  0
 12 21  2  0  0  0  0
 21 22  1  0  0  0  0
 23  8  2  0  0  0  0
 24 23  1  0  0  0  0
  5 24  2  0  0  0  0
M  END
> <RowID>
863

> <Original_SMILES>
CC(=O)NC1C=CC(=CC=1)NC(=O)C1C=C2C=CC=CC2=CC=1O

> <Canonical_QSARr>
CC(=O)NC1C=CC(=CC=1)NC(=O)C1C=C2C=CC=CC2=CC=1O

> <InChI_Code_QSARr>
InChI=1S/C19H16N2O3/c1-12(22)20-15-6-8-16(9-7-15)21-19(24)17-10-13-4-2-3-5-14(13)11-18(17)23/h2-11,23H,1H3,(H,20,22)(H,21,24)

> <InChI Key_QSARr>
MSRUOXBBGPWHEG-UHFFFAOYSA-N

> <Salt_Solvent>


> <Salt_Solvent_ID>
0

> <Number of connected components>
1

$$$$
Molecule_864
  Mrv2316 01072400032D          

 12 12  0  0  0  0            999 V2000
    2.1434    1.2375    0.0000 C   0  0  0  0  0  0  0  0  0  0  0  0
    1.4289    0.8250    0.0000 C   0  0  0  0  0  0  0  0  0  0  0  0
    0.7145    1.2375    0.0000 C   0  0  0  0  0  0  0  0  0  0  0  0
   -0.0000    0.8250    0.0000 C   0  0  0  0  0  0  0  0  0  0  0  0
   -0.0000    0.0000    0.0000 C   0  0  0  0  0  0  0  0  0  0  0  0
    0.7145   -0.4125    0.0000 C   0  0  0  0  0  0  0  0  0  0  0  0
    0.7145   -1.2375    0.0000 C   0  0  0  0  0  0  0  0  0  0  0  0
    1.4289   -1.6500    0.0000 C   0  0  0  0  0  0  0  0  0  0  0  0
    2.1434   -1.2375    0.0000 C   0  0  0  0  0  0  0  0  0  0  0  0
    2.1434   -0.4125    0.0000 C   0  0  0  0  0  0  0  0  0  0  0  0
    2.8579   -0.0000    0.0000 C   0  0  0  0  0  0  0  0  0  0  0  0
    2.8579    0.8250    0.0000 C   0  0  0  0  0  0  0  0  0  0  0  0
  2  1  1  0  0  0  0
  3  2  1  4  0  0  0
  4  3  2  0  0  0  0
  5  4  1  0  0  0  0
  6  5  1  0  0  0  0
  7  6  1  4  0  0  0
  8  7  2  0  0  0  0
  9  8  1  0  0  0  0
 10  9  1  0  0  0  0
 11 10  1  4  0  0  0
 12 11  2  0  0  0  0
  1 12  1  0  0  0  0
M  END
> <RowID>
864

> <Original_SMILES>
C1CC=CCCC=CCCC=C1

> <Canonical_QSARr>
C1CC=CCCC=CCCC=C1

> <InChI_Code_QSARr>
InChI=1S/C12H18/c1-2-4-6-8-10-12-11-9-7-5-3-1/h1-2,7-10H,3-6,11-12H2

> <InChI Key_QSARr>
ZOLLIQAKMYWTBR-UHFFFAOYSA-N

> <Salt_Solvent>


> <Salt_Solvent_ID>
0

> <Number of connected components>
1

$$$$
Molecule_865
  Mrv2316 01072400032D          

 21 23  0  0  0  0            999 V2000
    2.3954   -2.4308    0.0000 O   0  0  0  0  0  0  0  0  0  0  0  0
    2.9257   -1.7988    0.0000 C   0  0  0  0  0  0  0  0  0  0  0  0
    2.2937   -1.2685    0.0000 C   0  0  0  0  0  0  0  0  0  0  0  0
    1.5185   -1.5507    0.0000 C   0  0  0  0  0  0  0  0  0  0  0  0
    0.8865   -1.0204    0.0000 C   0  0  0  0  0  0  0  0  0  0  0  0
    0.1112   -1.3026    0.0000 C   0  0  0  0  0  0  0  0  0  0  0  0
   -0.0320   -2.1150    0.0000 C   0  0  0  0  0  0  0  0  0  0  0  0
    0.6000   -2.6453    0.0000 C   0  0  0  0  0  0  0  0  0  0  0  0
    1.3752   -2.3632    0.0000 C   0  0  0  0  0  0  0  0  0  0  0  0
    2.0072   -2.8935    0.0000 Cl  0  0  0  0  0  0  0  0  0  0  0  0
    3.4560   -1.1668    0.0000 C   0  0  0  0  0  0  0  0  0  0  0  0
    3.1738   -0.3916    0.0000 N   0  0  0  0  0  0  0  0  0  0  0  0
    3.6352    0.2924    0.0000 N   0  0  0  0  0  0  0  0  0  0  0  0
    3.1273    0.9425    0.0000 C   0  0  0  0  0  0  0  0  0  0  0  0
    2.3520    0.6603    0.0000 N   0  0  0  0  0  0  0  0  0  0  0  0
    2.3808   -0.1642    0.0000 C   0  0  0  0  0  0  0  0  0  0  0  0
    1.7307   -0.6721    0.0000 S   0  0  0  0  0  0  0  0  0  0  0  0
    3.5577   -2.3291    0.0000 C   0  0  0  0  0  0  0  0  0  0  0  0
    4.1897   -1.7988    0.0000 Cl  0  0  0  0  0  0  0  0  0  0  0  0
    3.1452   -3.0436    0.0000 C   0  0  0  0  0  0  0  0  0  0  0  0
    3.9702   -3.0436    0.0000 C   0  0  0  0  0  0  0  0  0  0  0  0
  1  2  1  0  0  0  0
  2  3  1  0  0  0  0
  3  4  1  0  0  0  0
  5  4  1  0  0  0  0
  6  5  2  0  0  0  0
  7  6  1  0  0  0  0
  8  7  2  0  0  0  0
  9  8  1  0  0  0  0
  4  9  2  0  0  0  0
  9 10  1  0  0  0  0
  2 11  1  0  0  0  0
 11 12  1  0  0  0  0
 13 12  1  0  0  0  0
 14 13  1  0  0  0  0
 15 14  1  0  0  0  0
 16 15  1  0  0  0  0
 12 16  1  0  0  0  0
 16 17  2  0  0  0  0
  2 18  1  0  0  0  0
 18 19  1  0  0  0  0
 20 18  1  0  0  0  0
 21 20  1  0  0  0  0
 18 21  1  0  0  0  0
M  END
> <RowID>
865

> <Original_SMILES>
OC(CC1C=CC=CC=1Cl)(CN1NCNC1=S)C1(Cl)CC1

> <Canonical_QSARr>
OC(CC1C=CC=CC=1Cl)(CN1NCNC1=S)C1(Cl)CC1

> <InChI_Code_QSARr>
InChI=1S/C14H17Cl2N3OS/c15-11-4-2-1-3-10(11)7-14(20,13(16)5-6-13)8-19-12(21)17-9-18-19/h1-4,18,20H,5-9H2,(H,17,21)

> <InChI Key_QSARr>
PCARSQBZDYOIPU-UHFFFAOYSA-N

> <Salt_Solvent>


> <Salt_Solvent_ID>
0

> <Number of connected components>
1

$$$$
Molecule_866
  Mrv2316 01072400032D          

 19 19  0  0  0  0            999 V2000
   -0.2711   -1.6047    0.0000 O   0  0  0  0  0  0  0  0  0  0  0  0
    0.3793   -1.0971    0.0000 C   0  0  0  0  0  0  0  0  0  0  0  0
    1.1722   -1.3249    0.0000 C   0  0  0  0  0  0  0  0  0  0  0  0
    1.6831   -2.0692    0.0000 C   0  0  0  0  0  0  0  0  0  0  0  0
    2.5076   -2.0408    0.0000 C   0  0  0  0  0  0  0  0  0  0  0  0
    2.8952   -1.3126    0.0000 C   0  0  0  0  0  0  0  0  0  0  0  0
    3.7197   -1.2841    0.0000 C   0  0  0  0  0  0  0  0  0  0  0  0
    4.1074   -0.5559    0.0000 C   0  0  0  0  0  0  0  0  0  0  0  0
    4.9319   -0.5275    0.0000 C   0  0  0  0  0  0  0  0  0  0  0  0
    5.3196    0.2008    0.0000 C   0  0  0  0  0  0  0  0  0  0  0  0
    4.8827    0.9006    0.0000 C   0  0  0  0  0  0  0  0  0  0  0  0
    4.0582    0.8722    0.0000 C   0  0  0  0  0  0  0  0  0  0  0  0
    3.6213    1.5720    0.0000 C   0  0  0  0  0  0  0  0  0  0  0  0
    2.7968    1.5436    0.0000 C   0  0  0  0  0  0  0  0  0  0  0  0
    2.3600    2.2435    0.0000 O   0  0  0  0  0  0  0  0  0  0  0  0
    2.4092    0.8154    0.0000 O   0  0  0  0  0  0  0  0  0  0  0  0
    1.5847    0.7870    0.0000 C   0  0  0  0  0  0  0  0  0  0  0  0
    1.1262    0.0092    0.0000 C   0  0  0  0  0  0  0  0  0  0  0  0
    0.3509   -0.2726    0.0000 O   0  0  0  0  0  0  0  0  0  0  0  0
  1  2  2  0  0  0  0
  3  2  1  0  0  0  0
  4  3  1  0  0  0  0
  5  4  1  0  0  0  0
  6  5  1  0  0  0  0
  7  6  1  0  0  0  0
  8  7  1  0  0  0  0
  9  8  1  0  0  0  0
 10  9  1  0  0  0  0
 11 10  1  0  0  0  0
 12 11  1  0  0  0  0
 13 12  1  0  0  0  0
 14 13  1  0  0  0  0
 14 15  2  0  0  0  0
 16 14  1  0  0  0  0
 17 16  1  0  0  0  0
 18 17  1  0  0  0  0
 19 18  1  0  0  0  0
  2 19  1  0  0  0  0
M  END
> <RowID>
866

> <Original_SMILES>
O=C1CCCCCCCCCCCC(=O)OCCO1

> <Canonical_QSARr>
O=C1CCCCCCCCCCCC(=O)OCCO1

> <InChI_Code_QSARr>
InChI=1S/C15H26O4/c16-14-10-8-6-4-2-1-3-5-7-9-11-15(17)19-13-12-18-14/h1-13H2

> <InChI Key_QSARr>
XRHCAGNSDHCHFJ-UHFFFAOYSA-N

> <Salt_Solvent>


> <Salt_Solvent_ID>
0

> <Number of connected components>
1

$$$$
Molecule_869
  Mrv2316 01072400032D          

 25 27  0  0  0  0            999 V2000
   -5.0013    3.6553    0.0000 C   0  0  0  0  0  0  0  0  0  0  0  0
   -5.0013    2.8303    0.0000 O   0  0  0  0  0  0  0  0  0  0  0  0
   -4.2868    2.4178    0.0000 C   0  0  0  0  0  0  0  0  0  0  0  0
   -4.2868    1.5928    0.0000 C   0  0  0  0  0  0  0  0  0  0  0  0
   -3.5724    1.1803    0.0000 C   0  0  0  0  0  0  0  0  0  0  0  0
   -2.8579    1.5928    0.0000 C   0  0  0  0  0  0  0  0  0  0  0  0
   -2.1434    1.1803    0.0000 O   0  0  0  0  0  0  0  0  0  0  0  0
   -2.1434    0.3553    0.0000 C   0  0  0  0  0  0  0  0  0  0  0  0
   -2.8579   -0.0572    0.0000 O   0  0  0  0  0  0  0  0  0  0  0  0
   -1.4290   -0.0572    0.0000 C   0  0  0  0  0  0  0  0  0  0  0  0
   -1.4290   -0.8822    0.0000 C   0  0  0  0  0  0  0  0  0  0  0  0
   -0.7145   -1.2947    0.0000 C   0  0  0  0  0  0  0  0  0  0  0  0
   -0.0000   -0.8822    0.0000 C   0  0  0  0  0  0  0  0  0  0  0  0
    0.7145   -1.2947    0.0000 O   0  0  0  0  0  0  0  0  0  0  0  0
    1.4289   -0.8822    0.0000 C   0  0  0  0  0  0  0  0  0  0  0  0
    2.1434   -1.2947    0.0000 C   0  0  0  0  0  0  0  0  0  0  0  0
    2.8579   -0.8822    0.0000 C   0  0  0  0  0  0  0  0  0  0  0  0
    3.5723   -1.2947    0.0000 C   0  0  0  0  0  0  0  0  0  0  0  0
    4.2868   -0.8822    0.0000 C   0  0  0  0  0  0  0  0  0  0  0  0
    5.1118   -0.8822    0.0000 C   0  0  0  0  0  0  0  0  0  0  0  0
    4.6993   -0.1677    0.0000 O   0  0  0  0  0  0  0  0  0  0  0  0
   -0.0000   -0.0572    0.0000 C   0  0  0  0  0  0  0  0  0  0  0  0
   -0.7145    0.3553    0.0000 C   0  0  0  0  0  0  0  0  0  0  0  0
   -2.8579    2.4178    0.0000 C   0  0  0  0  0  0  0  0  0  0  0  0
   -3.5724    2.8303    0.0000 C   0  0  0  0  0  0  0  0  0  0  0  0
  1  2  1  0  0  0  0
  2  3  1  0  0  0  0
  4  3  1  0  0  0  0
  5  4  2  0  0  0  0
  6  5  1  0  0  0  0
  6  7  1  0  0  0  0
  7  8  1  0  0  0  0
  8  9  2  0  0  0  0
  8 10  1  0  0  0  0
 11 10  1  0  0  0  0
 12 11  2  0  0  0  0
 13 12  1  0  0  0  0
 13 14  1  0  0  0  0
 14 15  1  0  0  0  0
 15 16  1  0  0  0  0
 16 17  1  0  0  0  0
 17 18  1  0  0  0  0
 18 19  1  0  0  0  0
 20 19  1  0  0  0  0
 21 20  1  0  0  0  0
 19 21  1  0  0  0  0
 22 13  2  0  0  0  0
 23 22  1  0  0  0  0
 10 23  2  0  0  0  0
 24  6  2  0  0  0  0
 25 24  1  0  0  0  0
  3 25  2  0  0  0  0
M  END
> <RowID>
869

> <Original_SMILES>
COC1C=CC(=CC=1)OC(=O)C1C=CC(=CC=1)OCCCCC1CO1

> <Canonical_QSARr>
COC1C=CC(=CC=1)OC(=O)C1C=CC(=CC=1)OCCCCC1CO1

> <InChI_Code_QSARr>
InChI=1S/C20H22O5/c1-22-16-9-11-18(12-10-16)25-20(21)15-5-7-17(8-6-15)23-13-3-2-4-19-14-24-19/h5-12,19H,2-4,13-14H2,1H3

> <InChI Key_QSARr>
GUVONCNNLQOJHV-UHFFFAOYSA-N

> <Salt_Solvent>


> <Salt_Solvent_ID>
0

> <Number of connected components>
1

$$$$
Molecule_870
  Mrv2316 01072400032D          

  8  8  0  0  0  0            999 V2000
    0.7145   -1.2375    0.0000 O   0  0  0  0  0  0  0  0  0  0  0  0
    0.7145   -0.4125    0.0000 C   0  0  0  0  0  0  0  0  0  0  0  0
    1.4289    0.0000    0.0000 C   0  0  0  0  0  0  0  0  0  0  0  0
    1.4289    0.8250    0.0000 C   0  0  0  0  0  0  0  0  0  0  0  0
    0.7145    1.2375    0.0000 C   0  0  0  0  0  0  0  0  0  0  0  0
    0.7145    2.0625    0.0000 O   0  0  0  0  0  0  0  0  0  0  0  0
    0.0000    0.8250    0.0000 C   0  0  0  0  0  0  0  0  0  0  0  0
    0.0000    0.0000    0.0000 C   0  0  0  0  0  0  0  0  0  0  0  0
  1  2  1  0  0  0  0
  3  2  1  0  0  0  0
  4  3  1  0  0  0  0
  5  4  1  0  0  0  0
  5  6  2  0  0  0  0
  7  5  1  0  0  0  0
  8  7  1  0  0  0  0
  2  8  1  0  0  0  0
M  END
> <RowID>
870

> <Original_SMILES>
OC1CCC(=O)CC1

> <Canonical_QSARr>
OC1CCC(=O)CC1

> <InChI_Code_QSARr>
InChI=1S/C6H10O2/c7-5-1-2-6(8)4-3-5/h5,7H,1-4H2

> <InChI Key_QSARr>
BXBJZYXQHHPVGO-UHFFFAOYSA-N

> <Salt_Solvent>


> <Salt_Solvent_ID>
0

> <Number of connected components>
1

$$$$
Molecule_871
  Mrv2316 01072400032D          

  7  7  0  0  0  0            999 V2000
    0.7145    2.0625    0.0000 Cl  0  0  0  0  0  0  0  0  0  0  0  0
    0.7145    1.2375    0.0000 C   0  0  0  0  0  0  0  0  0  0  0  0
    0.0000    0.8250    0.0000 C   0  0  0  0  0  0  0  0  0  0  0  0
    0.0000   -0.0000    0.0000 C   0  0  0  0  0  0  0  0  0  0  0  0
    0.7145   -0.4125    0.0000 C   0  0  0  0  0  0  0  0  0  0  0  0
    1.4289    0.0000    0.0000 C   0  0  0  0  0  0  0  0  0  0  0  0
    1.4289    0.8250    0.0000 C   0  0  0  0  0  0  0  0  0  0  0  0
  1  2  1  0  0  0  0
  3  2  1  0  0  0  0
  4  3  2  0  0  0  0
  5  4  1  0  0  0  0
  6  5  2  0  0  0  0
  7  6  1  0  0  0  0
  2  7  2  0  0  0  0
M  END
> <RowID>
871

> <Original_SMILES>
ClC1C=CC=CC=1

> <Canonical_QSARr>
ClC1C=CC=CC=1

> <InChI_Code_QSARr>
InChI=1S/C6H5Cl/c7-6-4-2-1-3-5-6/h1-5H

> <InChI Key_QSARr>
MVPPADPHJFYWMZ-UHFFFAOYSA-N

> <Salt_Solvent>


> <Salt_Solvent_ID>
0

> <Number of connected components>
1

$$$$
Molecule_872
  Mrv2316 01072400032D          

 12 11  0  0  0  0            999 V2000
    2.2836    2.1434    0.0000 C   0  0  0  0  0  0  0  0  0  0  0  0
    2.9980    2.5559    0.0000 O   0  0  0  0  0  0  0  0  0  0  0  0
    3.7125    2.1434    0.0000 C   0  0  0  0  0  0  0  0  0  0  0  0
    3.7125    1.3184    0.0000 O   0  0  0  0  0  0  0  0  0  0  0  0
    4.4270    2.5559    0.0000 C   0  0  0  0  0  0  0  0  0  0  0  0
    5.1414    2.1434    0.0000 C   0  0  0  0  0  0  0  0  0  0  0  0
    5.8559    2.5559    0.0000 C   0  0  0  0  0  0  0  0  0  0  0  0
    6.5704    2.1434    0.0000 C   0  0  0  0  0  0  0  0  0  0  0  0
    7.2849    2.5559    0.0000 C   0  0  0  0  0  0  0  0  0  0  0  0
    7.2849    3.3809    0.0000 O   0  0  0  0  0  0  0  0  0  0  0  0
    7.9993    2.1434    0.0000 O   0  0  0  0  0  0  0  0  0  0  0  0
    8.7138    2.5559    0.0000 C   0  0  0  0  0  0  0  0  0  0  0  0
  1  2  1  0  0  0  0
  2  3  1  0  0  0  0
  3  4  2  0  0  0  0
  3  5  1  0  0  0  0
  5  6  1  0  0  0  0
  6  7  1  0  0  0  0
  7  8  1  0  0  0  0
  8  9  1  0  0  0  0
  9 10  2  0  0  0  0
  9 11  1  0  0  0  0
 11 12  1  0  0  0  0
M  END
> <RowID>
872

> <Original_SMILES>
COC(=O)CCCCC(=O)OC

> <Canonical_QSARr>
COC(=O)CCCCC(=O)OC

> <InChI_Code_QSARr>
InChI=1S/C8H14O4/c1-11-7(9)5-3-4-6-8(10)12-2/h3-6H2,1-2H3

> <InChI Key_QSARr>
UDSFAEKRVUSQDD-UHFFFAOYSA-N

> <Salt_Solvent>


> <Salt_Solvent_ID>
0

> <Number of connected components>
1

$$$$
Molecule_873
  Mrv2316 01072400032D          

 11 10  0  0  0  0            999 V2000
    3.3809    0.3020    0.0000 C   0  0  0  0  0  0  0  0  0  0  0  0
    2.6664    0.7145    0.0000 C   0  0  0  0  0  0  0  0  0  0  0  0
    2.6664    1.5395    0.0000 C   0  0  0  0  0  0  0  0  0  0  0  0
    1.9520    0.3020    0.0000 C   0  0  0  0  0  0  0  0  0  0  0  0
    1.2375    0.7145    0.0000 Si  0  0  0  0  0  0  0  0  0  0  0  0
    0.5230    1.1270    0.0000 O   0  0  0  0  0  0  0  0  0  0  0  0
   -0.1914    0.7145    0.0000 C   0  0  0  0  0  0  0  0  0  0  0  0
    1.6500    1.4290    0.0000 O   0  0  0  0  0  0  0  0  0  0  0  0
    1.2375    2.1434    0.0000 C   0  0  0  0  0  0  0  0  0  0  0  0
    0.8250    0.0000    0.0000 O   0  0  0  0  0  0  0  0  0  0  0  0
   -0.0000    0.0000    0.0000 C   0  0  0  0  0  0  0  0  0  0  0  0
  1  2  1  0  0  0  0
  2  3  1  0  0  0  0
  2  4  1  0  0  0  0
  4  5  1  0  0  0  0
  5  6  1  0  0  0  0
  6  7  1  0  0  0  0
  5  8  1  0  0  0  0
  8  9  1  0  0  0  0
  5 10  1  0  0  0  0
 10 11  1  0  0  0  0
M  END
> <RowID>
873

> <Original_SMILES>
CC(C)C[Si](OC)(OC)OC

> <Canonical_QSARr>
CC(C)C[Si](OC)(OC)OC

> <InChI_Code_QSARr>
InChI=1S/C7H18O3Si/c1-7(2)6-11(8-3,9-4)10-5/h7H,6H2,1-5H3

> <InChI Key_QSARr>
XYJRNCYWTVGEEG-UHFFFAOYSA-N

> <Salt_Solvent>


> <Salt_Solvent_ID>
0

> <Number of connected components>
1

$$$$
Molecule_874
  Mrv2316 01072400032D          

 41 45  0  0  0  0            999 V2000
    1.7775    2.4750    0.0000 C   0  0  0  0  0  0  0  0  0  0  0  0
    1.0630    2.0625    0.0000 C   0  0  0  0  0  0  0  0  0  0  0  0
    0.3486    2.4750    0.0000 C   0  0  0  0  0  0  0  0  0  0  0  0
   -0.3659    2.0625    0.0000 C   0  0  0  0  0  0  0  0  0  0  0  0
   -0.3659    1.2375    0.0000 C   0  0  0  0  0  0  0  0  0  0  0  0
   -1.0804    0.8250    0.0000 Cl  0  0  0  0  0  0  0  0  0  0  0  0
    0.3486    0.8250    0.0000 C   0  0  0  0  0  0  0  0  0  0  0  0
    1.0630    1.2375    0.0000 C   0  0  0  0  0  0  0  0  0  0  0  0
    1.7775    0.8250    0.0000 N   0  0  0  0  0  0  0  0  0  0  0  0
    1.7775    0.0000    0.0000 C   0  0  0  0  0  0  0  0  0  0  0  0
    1.0630   -0.4125    0.0000 O   0  0  0  0  0  0  0  0  0  0  0  0
    2.4920   -0.4125    0.0000 C   0  0  0  0  0  0  0  0  0  0  0  0
    3.2064    0.0000    0.0000 C   0  0  0  0  0  0  0  0  0  0  0  0
    3.9209   -0.4125    0.0000 C   0  0  0  0  0  0  0  0  0  0  0  0
    4.6354    0.0000    0.0000 C   0  0  0  0  0  0  0  0  0  0  0  0
    5.3499   -0.4125    0.0000 C   0  0  0  0  0  0  0  0  0  0  0  0
    5.3499   -1.2375    0.0000 C   0  0  0  0  0  0  0  0  0  0  0  0
    4.6354   -1.6500    0.0000 C   0  0  0  0  0  0  0  0  0  0  0  0
    3.9209   -1.2375    0.0000 C   0  0  0  0  0  0  0  0  0  0  0  0
    3.2064   -1.6500    0.0000 C   0  0  0  0  0  0  0  0  0  0  0  0
    3.2064   -2.4750    0.0000 N   0  0  0  0  0  0  0  0  0  0  0  0
    2.4920   -2.8875    0.0000 N   0  0  0  0  0  0  0  0  0  0  0  0
    2.4920   -3.7125    0.0000 C   0  0  0  0  0  0  0  0  0  0  0  0
    1.7775   -4.1250    0.0000 C   0  0  0  0  0  0  0  0  0  0  0  0
    1.7775   -4.9500    0.0000 C   0  0  0  0  0  0  0  0  0  0  0  0
    1.0630   -5.3625    0.0000 C   0  0  0  0  0  0  0  0  0  0  0  0
    1.0630   -6.1875    0.0000 O   0  0  0  0  0  0  0  0  0  0  0  0
    0.3486   -4.9500    0.0000 N   0  0  0  0  0  0  0  0  0  0  0  0
   -0.3659   -5.3625    0.0000 C   0  0  0  0  0  0  0  0  0  0  0  0
   -1.0804   -4.9500    0.0000 C   0  0  0  0  0  0  0  0  0  0  0  0
   -1.7949   -5.3625    0.0000 C   0  0  0  0  0  0  0  0  0  0  0  0
   -1.7949   -6.1875    0.0000 C   0  0  0  0  0  0  0  0  0  0  0  0
   -1.0804   -6.6000    0.0000 C   0  0  0  0  0  0  0  0  0  0  0  0
   -0.3659   -6.1875    0.0000 C   0  0  0  0  0  0  0  0  0  0  0  0
    2.4920   -5.3625    0.0000 C   0  0  0  0  0  0  0  0  0  0  0  0
    3.2064   -4.9500    0.0000 C   0  0  0  0  0  0  0  0  0  0  0  0
    3.2064   -4.1250    0.0000 C   0  0  0  0  0  0  0  0  0  0  0  0
    3.9209   -3.7125    0.0000 O   0  0  0  0  0  0  0  0  0  0  0  0
    3.9209   -2.8875    0.0000 C   0  0  0  0  0  0  0  0  0  0  0  0
    2.4920   -1.2375    0.0000 C   0  0  0  0  0  0  0  0  0  0  0  0
    1.7775   -1.6500    0.0000 O   0  0  0  0  0  0  0  0  0  0  0  0
  1  2  1  0  0  0  0
  3  2  1  0  0  0  0
  4  3  2  0  0  0  0
  5  4  1  0  0  0  0
  5  6  1  0  0  0  0
  7  5  2  0  0  0  0
  8  7  1  0  0  0  0
  2  8  2  0  0  0  0
  8  9  1  0  0  0  0
  9 10  1  0  0  0  0
 10 11  2  0  0  0  0
 10 12  1  0  0  0  0
 13 12  1  0  0  0  0
 14 13  2  0  0  0  0
 14 15  1  0  0  0  0
 15 16  2  0  0  0  0
 16 17  1  0  0  0  0
 17 18  2  0  0  0  0
 18 19  1  0  0  0  0
 19 14  1  0  0  0  0
 20 19  2  0  0  0  0
 21 20  1  4  0  0  0
 21 22  2  0  0  0  0
 22 23  1  0  0  0  0
 24 23  1  0  0  0  0
 25 24  2  0  0  0  0
 25 26  1  0  0  0  0
 26 27  2  0  0  0  0
 26 28  1  0  0  0  0
 28 29  1  0  0  0  0
 30 29  1  0  0  0  0
 31 30  2  0  0  0  0
 32 31  1  0  0  0  0
 33 32  2  0  0  0  0
 34 33  1  0  0  0  0
 29 34  2  0  0  0  0
 35 25  1  0  0  0  0
 36 35  2  0  0  0  0
 37 36  1  0  0  0  0
 23 37  2  0  0  0  0
 37 38  1  0  0  0  0
 38 39  1  0  0  0  0
 40 20  1  0  0  0  0
 12 40  2  0  0  0  0
 40 41  1  0  0  0  0
M  END
> <RowID>
874

> <Original_SMILES>
CC1C=CC(Cl)=CC=1NC(=O)C1C=C2C=CC=CC2=C(N=NC2C=C(C=CC=2OC)C(=O)NC2C=CC=CC=2)C=1O

> <Canonical_QSARr>
CC1C=CC(Cl)=CC=1NC(=O)C1C=C2C=CC=CC2=C(N=NC2C=C(C=CC=2OC)C(=O)NC2C=CC=CC=2)C=1O

> <InChI_Code_QSARr>
InChI=1S/C32H25ClN4O4/c1-19-12-14-22(33)18-26(19)35-32(40)25-16-20-8-6-7-11-24(20)29(30(25)38)37-36-27-17-21(13-15-28(27)41-2)31(39)34-23-9-4-3-5-10-23/h3-18,38H,1-2H3,(H,34,39)(H,35,40)

> <InChI Key_QSARr>
WWPCXBSKDSUELS-UHFFFAOYSA-N

> <Salt_Solvent>


> <Salt_Solvent_ID>
0

> <Number of connected components>
1

$$$$
Molecule_876
  Mrv2316 01072400032D          

 11 11  0  0  0  0            999 V2000
   -0.7145   -0.4125    0.0000 Cl  0  0  0  0  0  0  0  0  0  0  0  0
   -0.0000    0.0000    0.0000 C   0  0  0  0  0  0  0  0  0  0  0  0
    0.7145   -0.4125    0.0000 C   0  0  0  0  0  0  0  0  0  0  0  0
    1.4289   -0.0000    0.0000 C   0  0  0  0  0  0  0  0  0  0  0  0
    1.4289    0.8250    0.0000 C   0  0  0  0  0  0  0  0  0  0  0  0
    0.7145    1.2375    0.0000 C   0  0  0  0  0  0  0  0  0  0  0  0
    0.7145    2.0625    0.0000 Cl  0  0  0  0  0  0  0  0  0  0  0  0
   -0.0000    0.8250    0.0000 C   0  0  0  0  0  0  0  0  0  0  0  0
   -0.7145    1.2375    0.0000 C   0  0  0  0  0  0  0  0  0  0  0  0
   -1.4289    0.8250    0.0000 Cl  0  0  0  0  0  0  0  0  0  0  0  0
   -0.7145    2.0625    0.0000 Cl  0  0  0  0  0  0  0  0  0  0  0  0
  1  2  1  0  0  0  0
  3  2  1  0  0  0  0
  4  3  2  0  0  0  0
  5  4  1  0  0  0  0
  6  5  2  0  0  0  0
  6  7  1  0  0  0  0
  8  6  1  0  0  0  0
  2  8  2  0  0  0  0
  8  9  1  0  0  0  0
  9 10  1  0  0  0  0
  9 11  1  0  0  0  0
M  END
> <RowID>
876

> <Original_SMILES>
ClC1C=CC=C(Cl)C=1C(Cl)Cl

> <Canonical_QSARr>
ClC1C=CC=C(Cl)C=1C(Cl)Cl

> <InChI_Code_QSARr>
InChI=1S/C7H4Cl4/c8-4-2-1-3-5(9)6(4)7(10)11/h1-3,7H

> <InChI Key_QSARr>
QQPXXHAEIGVZKQ-UHFFFAOYSA-N

> <Salt_Solvent>


> <Salt_Solvent_ID>
0

> <Number of connected components>
1

$$$$
Molecule_878
  Mrv2316 01072400032D          

  6  5  0  0  0  0            999 V2000
    2.4750   -0.0000    0.0000 C   0  0  0  0  0  0  0  0  0  0  0  0
    1.6500   -0.0000    0.0000 C   0  0  0  0  0  0  0  0  0  0  0  0
    1.6500    0.8250    0.0000 C   0  0  0  0  0  0  0  0  0  0  0  0
    1.6500   -0.8250    0.0000 C   0  0  0  0  0  0  0  0  0  0  0  0
    0.8250    0.0000    0.0000 C   0  0  0  0  0  0  0  0  0  0  0  0
    0.0000    0.0000    0.0000 C   0  0  0  0  0  0  0  0  0  0  0  0
  1  2  1  0  0  0  0
  2  3  1  0  0  0  0
  2  4  1  0  0  0  0
  2  5  1  0  0  0  0
  5  6  3  0  0  0  0
M  END
> <RowID>
878

> <Original_SMILES>
CC(C)(C)C#C

> <Canonical_QSARr>
CC(C)(C)C#C

> <InChI_Code_QSARr>
InChI=1S/C6H10/c1-5-6(2,3)4/h1H,2-4H3

> <InChI Key_QSARr>
PPWNCLVNXGCGAF-UHFFFAOYSA-N

> <Salt_Solvent>


> <Salt_Solvent_ID>
0

> <Number of connected components>
1

$$$$
Molecule_880
  Mrv2316 01072400032D          

 33 36  0  0  0  0            999 V2000
   -4.2435   -3.3750    0.0000 C   0  0  0  0  0  0  0  0  0  0  0  0
   -4.2435   -4.2000    0.0000 C   0  0  0  0  0  0  0  0  0  0  0  0
   -5.0685   -4.2000    0.0000 C   0  0  0  0  0  0  0  0  0  0  0  0
   -3.4185   -4.2000    0.0000 O   0  0  0  0  0  0  0  0  0  0  0  0
   -4.2435   -5.0250    0.0000 C   0  0  0  0  0  0  0  0  0  0  0  0
   -4.9580   -5.4375    0.0000 C   0  0  0  0  0  0  0  0  0  0  0  0
   -4.9580   -6.2625    0.0000 C   0  0  0  0  0  0  0  0  0  0  0  0
   -4.2435   -6.6750    0.0000 C   0  0  0  0  0  0  0  0  0  0  0  0
   -3.5290   -6.2625    0.0000 C   0  0  0  0  0  0  0  0  0  0  0  0
   -3.5290   -5.4375    0.0000 C   0  0  0  0  0  0  0  0  0  0  0  0
   -2.8146   -5.0250    0.0000 C   0  0  0  0  0  0  0  0  0  0  0  0
   -2.8146   -4.2000    0.0000 C   0  0  0  0  0  0  0  0  0  0  0  0
   -2.1001   -3.7875    0.0000 C   0  0  0  0  0  0  0  0  0  0  0  0
   -1.3856   -4.2000    0.0000 O   0  0  0  0  0  0  0  0  0  0  0  0
   -2.1001   -2.9625    0.0000 C   0  0  0  0  0  0  0  0  0  0  0  0
   -1.3856   -2.5500    0.0000 C   0  0  0  0  0  0  0  0  0  0  0  0
   -1.3856   -1.7250    0.0000 C   0  0  0  0  0  0  0  0  0  0  0  0
   -0.6712   -1.3125    0.0000 C   0  0  0  0  0  0  0  0  0  0  0  0
   -0.6712   -0.4875    0.0000 C   0  0  0  0  0  0  0  0  0  0  0  0
    0.0433   -0.0750    0.0000 C   0  0  0  0  0  0  0  0  0  0  0  0
    0.0433    0.7500    0.0000 C   0  0  0  0  0  0  0  0  0  0  0  0
    0.7578    1.1625    0.0000 C   0  0  0  0  0  0  0  0  0  0  0  0
    1.4723    0.7500    0.0000 C   0  0  0  0  0  0  0  0  0  0  0  0
    2.1867    1.1625    0.0000 C   0  0  0  0  0  0  0  0  0  0  0  0
    2.9012    0.7500    0.0000 C   0  0  0  0  0  0  0  0  0  0  0  0
    2.9012   -0.0750    0.0000 C   0  0  0  0  0  0  0  0  0  0  0  0
    3.6157   -0.4875    0.0000 Cl  0  0  0  0  0  0  0  0  0  0  0  0
    2.1867   -0.4875    0.0000 C   0  0  0  0  0  0  0  0  0  0  0  0
    1.4723   -0.0750    0.0000 C   0  0  0  0  0  0  0  0  0  0  0  0
    0.7578   -0.4875    0.0000 N   0  0  0  0  0  0  0  0  0  0  0  0
   -2.1001   -1.3125    0.0000 C   0  0  0  0  0  0  0  0  0  0  0  0
   -2.8146   -1.7250    0.0000 C   0  0  0  0  0  0  0  0  0  0  0  0
   -2.8146   -2.5500    0.0000 C   0  0  0  0  0  0  0  0  0  0  0  0
  1  2  1  0  0  0  0
  2  3  1  0  0  0  0
  2  4  1  0  0  0  0
  2  5  1  0  0  0  0
  6  5  2  0  0  0  0
  7  6  1  0  0  0  0
  8  7  2  0  0  0  0
  9  8  1  0  0  0  0
 10  9  2  0  0  0  0
  5 10  1  0  0  0  0
 10 11  1  0  0  0  0
 11 12  1  0  0  0  0
 12 13  1  0  0  0  0
 13 14  1  0  0  0  0
 13 15  1  0  0  0  0
 16 15  1  0  0  0  0
 17 16  2  0  0  0  0
 18 17  1  4  0  0  0
 18 19  2  0  0  0  0
 19 20  1  0  0  0  0
 21 20  1  0  0  0  0
 22 21  2  0  0  0  0
 23 22  1  0  0  0  0
 23 24  1  0  0  0  0
 24 25  2  0  0  0  0
 25 26  1  0  0  0  0
 26 27  1  0  0  0  0
 26 28  2  0  0  0  0
 28 29  1  0  0  0  0
 29 23  2  0  0  0  0
 30 29  1  0  0  0  0
 20 30  2  0  0  0  0
 31 17  1  0  0  0  0
 32 31  2  0  0  0  0
 33 32  1  0  0  0  0
 15 33  2  0  0  0  0
M  END
> <RowID>
880

> <Original_SMILES>
CC(C)(O)C1=CC=CC=C1CCC(O)C1C=C(C=CC=1)C=CC1C=CC2C=CC(Cl)=CC=2N=1

> <Canonical_QSARr>
CC(C)(O)C1=CC=CC=C1CCC(O)C1C=C(C=CC=1)C=CC1C=CC2C=CC(Cl)=CC=2N=1

> <InChI_Code_QSARr>
InChI=1S/C29H28ClNO2/c1-29(2,33)26-9-4-3-7-21(26)13-17-28(32)23-8-5-6-20(18-23)10-15-25-16-12-22-11-14-24(30)19-27(22)31-25/h3-12,14-16,18-19,28,32-33H,13,17H2,1-2H3

> <InChI Key_QSARr>
ZSHIDKYITZZTLA-UHFFFAOYSA-N

> <Salt_Solvent>


> <Salt_Solvent_ID>
0

> <Number of connected components>
1

$$$$
Molecule_881
  Mrv2316 01072400032D          

 15 16  0  0  0  0            999 V2000
    1.6011   -0.5371    0.0000 C   0  0  0  0  0  0  0  0  0  0  0  0
    0.9692   -1.0674    0.0000 C   0  0  0  0  0  0  0  0  0  0  0  0
    0.5567   -1.7818    0.0000 O   0  0  0  0  0  0  0  0  0  0  0  0
    1.3817   -1.7818    0.0000 C   0  0  0  0  0  0  0  0  0  0  0  0
    2.0961   -2.1943    0.0000 C   0  0  0  0  0  0  0  0  0  0  0  0
    2.8106   -1.7818    0.0000 O   0  0  0  0  0  0  0  0  0  0  0  0
    2.0961   -3.0193    0.0000 O   0  0  0  0  0  0  0  0  0  0  0  0
    2.8106   -3.4318    0.0000 C   0  0  0  0  0  0  0  0  0  0  0  0
    2.8106   -4.2568    0.0000 C   0  0  0  0  0  0  0  0  0  0  0  0
    0.3372   -0.5371    0.0000 C   0  0  0  0  0  0  0  0  0  0  0  0
    0.4804    0.2754    0.0000 C   0  0  0  0  0  0  0  0  0  0  0  0
   -0.1516    0.8057    0.0000 C   0  0  0  0  0  0  0  0  0  0  0  0
   -0.9268    0.5235    0.0000 C   0  0  0  0  0  0  0  0  0  0  0  0
   -1.0701   -0.2889    0.0000 C   0  0  0  0  0  0  0  0  0  0  0  0
   -0.4381   -0.8192    0.0000 C   0  0  0  0  0  0  0  0  0  0  0  0
  1  2  1  0  0  0  0
  3  2  1  0  0  0  0
  4  3  1  0  0  0  0
  2  4  1  0  0  0  0
  4  5  1  0  0  0  0
  5  6  2  0  0  0  0
  5  7  1  0  0  0  0
  7  8  1  0  0  0  0
  8  9  1  0  0  0  0
  2 10  1  0  0  0  0
 11 10  1  0  0  0  0
 12 11  2  0  0  0  0
 13 12  1  0  0  0  0
 14 13  2  0  0  0  0
 15 14  1  0  0  0  0
 10 15  2  0  0  0  0
M  END
> <RowID>
881

> <Original_SMILES>
CC1(OC1C(=O)OCC)C1C=CC=CC=1

> <Canonical_QSARr>
CC1(OC1C(=O)OCC)C1C=CC=CC=1

> <InChI_Code_QSARr>
InChI=1S/C12H14O3/c1-3-14-11(13)10-12(2,15-10)9-7-5-4-6-8-9/h4-8,10H,3H2,1-2H3

> <InChI Key_QSARr>
LQKRYVGRPXFFAV-UHFFFAOYSA-N

> <Salt_Solvent>


> <Salt_Solvent_ID>
0

> <Number of connected components>
1

$$$$
Molecule_884
  Mrv2316 01072400032D          

 32 31  0  0  0  0            999 V2000
    1.7093   14.1868    0.0000 C   0  0  0  0  0  0  0  0  0  0  0  0
    1.7093   13.3618    0.0000 C   0  0  0  0  0  0  0  0  0  0  0  0
    2.4237   12.9493    0.0000 C   0  0  0  0  0  0  0  0  0  0  0  0
    2.4237   12.1243    0.0000 C   0  0  0  0  0  0  0  0  0  0  0  0
    3.1382   11.7118    0.0000 C   0  0  0  0  0  0  0  0  0  0  0  0
    3.1382   10.8868    0.0000 C   0  0  0  0  0  0  0  0  0  0  0  0
    3.8527   10.4743    0.0000 C   0  0  0  0  0  0  0  0  0  0  0  0
    3.8527    9.6493    0.0000 C   0  0  0  0  0  0  0  0  0  0  0  0
    4.5672    9.2368    0.0000 C   0  0  0  0  0  0  0  0  0  0  0  0
    4.5672    8.4118    0.0000 C   0  0  0  0  0  0  0  0  0  0  0  0
    5.2816    7.9993    0.0000 C   0  0  0  0  0  0  0  0  0  0  0  0
    5.2816    7.1743    0.0000 C   0  0  0  0  0  0  0  0  0  0  0  0
    5.9961    6.7618    0.0000 O   0  0  0  0  0  0  0  0  0  0  0  0
    5.9961    5.9368    0.0000 C   0  0  0  0  0  0  0  0  0  0  0  0
    5.2816    5.5243    0.0000 O   0  0  0  0  0  0  0  0  0  0  0  0
    6.7106    5.5243    0.0000 C   0  0  0  0  0  0  0  0  0  0  0  0
    6.7106    4.6993    0.0000 C   0  0  0  0  0  0  0  0  0  0  0  0
    7.4250    4.2868    0.0000 C   0  0  0  0  0  0  0  0  0  0  0  0
    7.4250    3.4618    0.0000 O   0  0  0  0  0  0  0  0  0  0  0  0
    8.1395    4.6993    0.0000 O   0  0  0  0  0  0  0  0  0  0  0  0
    8.8540    4.2868    0.0000 C   0  0  0  0  0  0  0  0  0  0  0  0
    9.5685    4.6993    0.0000 C   0  0  0  0  0  0  0  0  0  0  0  0
   10.2829    4.2868    0.0000 C   0  0  0  0  0  0  0  0  0  0  0  0
   10.9974    4.6993    0.0000 C   0  0  0  0  0  0  0  0  0  0  0  0
   11.7119    4.2868    0.0000 C   0  0  0  0  0  0  0  0  0  0  0  0
   12.4263    4.6993    0.0000 C   0  0  0  0  0  0  0  0  0  0  0  0
   13.1408    4.2868    0.0000 C   0  0  0  0  0  0  0  0  0  0  0  0
   13.8553    4.6993    0.0000 C   0  0  0  0  0  0  0  0  0  0  0  0
   14.5697    4.2868    0.0000 C   0  0  0  0  0  0  0  0  0  0  0  0
   15.2842    4.6993    0.0000 C   0  0  0  0  0  0  0  0  0  0  0  0
   15.9987    4.2868    0.0000 C   0  0  0  0  0  0  0  0  0  0  0  0
   16.7132    4.6993    0.0000 C   0  0  0  0  0  0  0  0  0  0  0  0
  1  2  1  0  0  0  0
  2  3  1  0  0  0  0
  3  4  1  0  0  0  0
  4  5  1  0  0  0  0
  5  6  1  0  0  0  0
  6  7  1  0  0  0  0
  7  8  1  0  0  0  0
  8  9  1  0  0  0  0
  9 10  1  0  0  0  0
 10 11  1  0  0  0  0
 11 12  1  0  0  0  0
 12 13  1  0  0  0  0
 13 14  1  0  0  0  0
 14 15  2  0  0  0  0
 16 14  1  4  0  0  0
 16 17  2  0  0  0  0
 17 18  1  0  0  0  0
 18 19  2  0  0  0  0
 18 20  1  0  0  0  0
 20 21  1  0  0  0  0
 21 22  1  0  0  0  0
 22 23  1  0  0  0  0
 23 24  1  0  0  0  0
 24 25  1  0  0  0  0
 25 26  1  0  0  0  0
 26 27  1  0  0  0  0
 27 28  1  0  0  0  0
 28 29  1  0  0  0  0
 29 30  1  0  0  0  0
 30 31  1  0  0  0  0
 31 32  1  0  0  0  0
M  END
> <RowID>
884

> <Original_SMILES>
CCCCCCCCCCCCOC(=O)C=CC(=O)OCCCCCCCCCCCC

> <Canonical_QSARr>
CCCCCCCCCCCCOC(=O)C=CC(=O)OCCCCCCCCCCCC

> <InChI_Code_QSARr>
InChI=1S/C28H52O4/c1-3-5-7-9-11-13-15-17-19-21-25-31-27(29)23-24-28(30)32-26-22-20-18-16-14-12-10-8-6-4-2/h23-24H,3-22,25-26H2,1-2H3

> <InChI Key_QSARr>
HEJZJSIRBLOWPD-UHFFFAOYSA-N

> <Salt_Solvent>


> <Salt_Solvent_ID>
0

> <Number of connected components>
1

$$$$
Molecule_885
  Mrv2316 01072400032D          

 15 16  0  0  0  0            999 V2000
    2.1434   -6.1325    0.0000 F   0  0  0  0  0  0  0  0  0  0  0  0
    2.1434   -5.3075    0.0000 C   0  0  0  0  0  0  0  0  0  0  0  0
    2.8579   -4.8950    0.0000 C   0  0  0  0  0  0  0  0  0  0  0  0
    2.8579   -4.0700    0.0000 C   0  0  0  0  0  0  0  0  0  0  0  0
    2.1434   -3.6575    0.0000 C   0  0  0  0  0  0  0  0  0  0  0  0
    2.1434   -2.8325    0.0000 C   0  0  0  0  0  0  0  0  0  0  0  0
    1.4289   -2.4200    0.0000 C   0  0  0  0  0  0  0  0  0  0  0  0
    1.4289   -1.5950    0.0000 C   0  0  0  0  0  0  0  0  0  0  0  0
    0.7145   -1.1825    0.0000 C   0  0  0  0  0  0  0  0  0  0  0  0
   -0.0000   -1.5950    0.0000 C   0  0  0  0  0  0  0  0  0  0  0  0
   -0.7145   -1.1825    0.0000 F   0  0  0  0  0  0  0  0  0  0  0  0
   -0.0000   -2.4200    0.0000 C   0  0  0  0  0  0  0  0  0  0  0  0
    0.7145   -2.8325    0.0000 C   0  0  0  0  0  0  0  0  0  0  0  0
    1.4289   -4.0700    0.0000 C   0  0  0  0  0  0  0  0  0  0  0  0
    1.4289   -4.8950    0.0000 C   0  0  0  0  0  0  0  0  0  0  0  0
  1  2  1  0  0  0  0
  3  2  1  0  0  0  0
  4  3  2  0  0  0  0
  5  4  1  0  0  0  0
  5  6  1  0  0  0  0
  6  7  1  0  0  0  0
  8  7  1  0  0  0  0
  9  8  2  0  0  0  0
 10  9  1  0  0  0  0
 10 11  1  0  0  0  0
 12 10  2  0  0  0  0
 13 12  1  0  0  0  0
  7 13  2  0  0  0  0
 14  5  2  0  0  0  0
 15 14  1  0  0  0  0
  2 15  2  0  0  0  0
M  END
> <RowID>
885

> <Original_SMILES>
FC1C=CC(CC2C=CC(F)=CC=2)=CC=1

> <Canonical_QSARr>
FC1C=CC(CC2C=CC(F)=CC=2)=CC=1

> <InChI_Code_QSARr>
InChI=1S/C13H10F2/c14-12-5-1-10(2-6-12)9-11-3-7-13(15)8-4-11/h1-8H,9H2

> <InChI Key_QSARr>
DXQVFHQUHOFROC-UHFFFAOYSA-N

> <Salt_Solvent>


> <Salt_Solvent_ID>
0

> <Number of connected components>
1

$$$$
Molecule_886
  Mrv2316 01072400032D          

 54 59  0  0  0  0            999 V2000
   -9.1992   -5.5523    0.0000 C   0  0  0  0  0  0  0  0  0  0  0  0
   -8.4847   -5.1398    0.0000 C   0  0  0  0  0  0  0  0  0  0  0  0
   -7.7702   -5.5523    0.0000 C   0  0  0  0  0  0  0  0  0  0  0  0
   -7.0558   -5.1398    0.0000 C   0  0  0  0  0  0  0  0  0  0  0  0
   -7.0558   -4.3148    0.0000 C   0  0  0  0  0  0  0  0  0  0  0  0
   -7.7702   -3.9023    0.0000 C   0  0  0  0  0  0  0  0  0  0  0  0
   -7.7702   -3.0773    0.0000 C   0  0  0  0  0  0  0  0  0  0  0  0
   -8.4847   -4.3148    0.0000 C   0  0  0  0  0  0  0  0  0  0  0  0
   -9.1992   -3.9023    0.0000 O   0  0  0  0  0  0  0  0  0  0  0  0
   -9.1992   -3.0773    0.0000 P   0  0  0  0  0  0  0  0  0  0  0  0
   -8.3742   -3.0773    0.0000 O   0  0  0  0  0  0  0  0  0  0  0  0
   -9.1992   -2.2523    0.0000 O   0  0  0  0  0  0  0  0  0  0  0  0
   -8.4847   -1.8398    0.0000 C   0  0  0  0  0  0  0  0  0  0  0  0
   -7.7702   -2.2523    0.0000 C   0  0  0  0  0  0  0  0  0  0  0  0
   -7.0558   -1.8398    0.0000 C   0  0  0  0  0  0  0  0  0  0  0  0
   -7.0558   -1.0148    0.0000 C   0  0  0  0  0  0  0  0  0  0  0  0
   -6.3413   -0.6023    0.0000 C   0  0  0  0  0  0  0  0  0  0  0  0
   -5.6268   -1.0148    0.0000 C   0  0  0  0  0  0  0  0  0  0  0  0
   -4.9123   -0.6023    0.0000 C   0  0  0  0  0  0  0  0  0  0  0  0
   -4.9123    0.2227    0.0000 C   0  0  0  0  0  0  0  0  0  0  0  0
   -4.1979    0.6352    0.0000 O   0  0  0  0  0  0  0  0  0  0  0  0
   -3.4834    0.2227    0.0000 P   0  0  0  0  0  0  0  0  0  0  0  0
   -3.8959   -0.4918    0.0000 O   0  0  0  0  0  0  0  0  0  0  0  0
   -2.7689   -0.1898    0.0000 O   0  0  0  0  0  0  0  0  0  0  0  0
   -2.7689   -1.0148    0.0000 C   0  0  0  0  0  0  0  0  0  0  0  0
   -3.4834   -1.4273    0.0000 C   0  0  0  0  0  0  0  0  0  0  0  0
   -4.1979   -1.0148    0.0000 C   0  0  0  0  0  0  0  0  0  0  0  0
   -3.4834   -2.2523    0.0000 C   0  0  0  0  0  0  0  0  0  0  0  0
   -2.7689   -2.6648    0.0000 C   0  0  0  0  0  0  0  0  0  0  0  0
   -2.0545   -2.2523    0.0000 C   0  0  0  0  0  0  0  0  0  0  0  0
   -2.0545   -1.4273    0.0000 C   0  0  0  0  0  0  0  0  0  0  0  0
   -1.3400   -1.0148    0.0000 C   0  0  0  0  0  0  0  0  0  0  0  0
   -3.0709    0.9372    0.0000 O   0  0  0  0  0  0  0  0  0  0  0  0
   -2.2459    0.9372    0.0000 C   0  0  0  0  0  0  0  0  0  0  0  0
   -1.8334    0.2227    0.0000 C   0  0  0  0  0  0  0  0  0  0  0  0
   -2.2459   -0.4918    0.0000 C   0  0  0  0  0  0  0  0  0  0  0  0
   -1.0084    0.2227    0.0000 C   0  0  0  0  0  0  0  0  0  0  0  0
   -0.5959    0.9372    0.0000 C   0  0  0  0  0  0  0  0  0  0  0  0
   -1.0084    1.6516    0.0000 C   0  0  0  0  0  0  0  0  0  0  0  0
   -1.8334    1.6516    0.0000 C   0  0  0  0  0  0  0  0  0  0  0  0
   -2.2459    2.3661    0.0000 C   0  0  0  0  0  0  0  0  0  0  0  0
   -5.6268    0.6352    0.0000 C   0  0  0  0  0  0  0  0  0  0  0  0
   -6.3413    0.2227    0.0000 C   0  0  0  0  0  0  0  0  0  0  0  0
   -7.7702   -0.6023    0.0000 C   0  0  0  0  0  0  0  0  0  0  0  0
   -8.4847   -1.0148    0.0000 C   0  0  0  0  0  0  0  0  0  0  0  0
  -10.0242   -3.0773    0.0000 O   0  0  0  0  0  0  0  0  0  0  0  0
  -10.4367   -2.3628    0.0000 C   0  0  0  0  0  0  0  0  0  0  0  0
  -10.0242   -1.6484    0.0000 C   0  0  0  0  0  0  0  0  0  0  0  0
   -9.1992   -1.6484    0.0000 C   0  0  0  0  0  0  0  0  0  0  0  0
  -10.4367   -0.9339    0.0000 C   0  0  0  0  0  0  0  0  0  0  0  0
  -11.2617   -0.9339    0.0000 C   0  0  0  0  0  0  0  0  0  0  0  0
  -11.6742   -1.6484    0.0000 C   0  0  0  0  0  0  0  0  0  0  0  0
  -11.2617   -2.3628    0.0000 C   0  0  0  0  0  0  0  0  0  0  0  0
  -11.6742   -3.0773    0.0000 C   0  0  0  0  0  0  0  0  0  0  0  0
  1  2  1  0  0  0  0
  3  2  1  0  0  0  0
  4  3  2  0  0  0  0
  5  4  1  0  0  0  0
  6  5  2  0  0  0  0
  6  7  1  0  0  0  0
  8  6  1  0  0  0  0
  2  8  2  0  0  0  0
  8  9  1  0  0  0  0
  9 10  1  0  0  0  0
 10 11  2  0  0  0  0
 10 12  1  0  0  0  0
 12 13  1  0  0  0  0
 14 13  1  0  0  0  0
 15 14  2  0  0  0  0
 16 15  1  0  0  0  0
 16 17  1  0  0  0  0
 18 17  1  0  0  0  0
 19 18  2  0  0  0  0
 20 19  1  0  0  0  0
 20 21  1  0  0  0  0
 21 22  1  0  0  0  0
 22 23  2  0  0  0  0
 22 24  1  0  0  0  0
 24 25  1  0  0  0  0
 26 25  1  0  0  0  0
 26 27  1  0  0  0  0
 28 26  2  0  0  0  0
 29 28  1  0  0  0  0
 30 29  2  0  0  0  0
 31 30  1  0  0  0  0
 25 31  2  0  0  0  0
 31 32  1  0  0  0  0
 22 33  1  0  0  0  0
 33 34  1  0  0  0  0
 35 34  1  0  0  0  0
 35 36  1  0  0  0  0
 37 35  2  0  0  0  0
 38 37  1  0  0  0  0
 39 38  2  0  0  0  0
 40 39  1  0  0  0  0
 34 40  2  0  0  0  0
 40 41  1  0  0  0  0
 42 20  2  0  0  0  0
 43 42  1  0  0  0  0
 17 43  2  0  0  0  0
 44 16  2  0  0  0  0
 45 44  1  0  0  0  0
 13 45  2  0  0  0  0
 10 46  1  0  0  0  0
 46 47  1  0  0  0  0
 48 47  1  0  0  0  0
 48 49  1  0  0  0  0
 50 48  2  0  0  0  0
 51 50  1  0  0  0  0
 52 51  2  0  0  0  0
 53 52  1  0  0  0  0
 47 53  2  0  0  0  0
 53 54  1  0  0  0  0
M  END
> <RowID>
886

> <Original_SMILES>
CC1C=CC=C(C)C=1OP(=O)(OC1C=CC(=CC=1)C1C=CC(=CC=1)OP(=O)(OC1C(C)=CC=CC=1C)OC1C(C)=CC=CC=1C)OC1C(C)=CC=CC=1C

> <Canonical_QSARr>
CC1C=CC=C(C)C=1OP(=O)(OC1C=CC(=CC=1)C1C=CC(=CC=1)OP(=O)(OC1C(C)=CC=CC=1C)OC1C(C)=CC=CC=1C)OC1C(C)=CC=CC=1C

> <InChI_Code_QSARr>
InChI=1S/C44H44O8P2/c1-29-13-9-14-30(2)41(29)49-53(45,50-42-31(3)15-10-16-32(42)4)47-39-25-21-37(22-26-39)38-23-27-40(28-24-38)48-54(46,51-43-33(5)17-11-18-34(43)6)52-44-35(7)19-12-20-36(44)8/h9-28H,1-8H3

> <InChI Key_QSARr>
FFLNNRGRLMXJSR-UHFFFAOYSA-N

> <Salt_Solvent>


> <Salt_Solvent_ID>
0

> <Number of connected components>
1

$$$$
Molecule_887
  Mrv2316 01072400032D          

 13 13  0  0  0  0            999 V2000
    5.7750    3.0653    0.0000 C   0  0  0  0  0  0  0  0  0  0  0  0
    6.4895    2.6528    0.0000 C   0  0  0  0  0  0  0  0  0  0  0  0
    7.2039    3.0653    0.0000 C   0  0  0  0  0  0  0  0  0  0  0  0
    7.9184    2.6528    0.0000 C   0  0  0  0  0  0  0  0  0  0  0  0
    8.6329    3.0653    0.0000 C   0  0  0  0  0  0  0  0  0  0  0  0
    9.3474    2.6528    0.0000 C   0  0  0  0  0  0  0  0  0  0  0  0
   10.0618    3.0653    0.0000 C   0  0  0  0  0  0  0  0  0  0  0  0
   10.7763    2.6528    0.0000 C   0  0  0  0  0  0  0  0  0  0  0  0
   11.4908    3.0653    0.0000 C   0  0  0  0  0  0  0  0  0  0  0  0
   12.2052    2.6528    0.0000 C   0  0  0  0  0  0  0  0  0  0  0  0
   12.9197    3.0653    0.0000 C   0  0  0  0  0  0  0  0  0  0  0  0
   13.7447    3.0653    0.0000 C   0  0  0  0  0  0  0  0  0  0  0  0
   13.3322    3.7798    0.0000 O   0  0  0  0  0  0  0  0  0  0  0  0
  1  2  1  0  0  0  0
  2  3  1  0  0  0  0
  3  4  1  0  0  0  0
  4  5  1  0  0  0  0
  5  6  1  0  0  0  0
  6  7  1  0  0  0  0
  7  8  1  0  0  0  0
  8  9  1  0  0  0  0
  9 10  1  0  0  0  0
 10 11  1  0  0  0  0
 12 11  1  0  0  0  0
 13 12  1  0  0  0  0
 11 13  1  0  0  0  0
M  END
> <RowID>
887

> <Original_SMILES>
CCCCCCCCCCC1CO1

> <Canonical_QSARr>
CCCCCCCCCCC1CO1

> <InChI_Code_QSARr>
InChI=1S/C12H24O/c1-2-3-4-5-6-7-8-9-10-12-11-13-12/h12H,2-11H2,1H3

> <InChI Key_QSARr>
MPGABYXKKCLIRW-UHFFFAOYSA-N

> <Salt_Solvent>


> <Salt_Solvent_ID>
0

> <Number of connected components>
1

$$$$
Molecule_888
  Mrv2316 01072400032D          

 15 14  0  0  0  0            999 V2000
    2.9980    2.5559    0.0000 O   0  0  0  0  0  0  0  0  0  0  0  0
    3.7125    2.1434    0.0000 C   0  0  0  0  0  0  0  0  0  0  0  0
    3.7125    1.3184    0.0000 O   0  0  0  0  0  0  0  0  0  0  0  0
    4.4270    2.5559    0.0000 C   0  0  0  0  0  0  0  0  0  0  0  0
    5.1414    2.1434    0.0000 C   0  0  0  0  0  0  0  0  0  0  0  0
    5.8559    2.5559    0.0000 C   0  0  0  0  0  0  0  0  0  0  0  0
    6.5704    2.1434    0.0000 C   0  0  0  0  0  0  0  0  0  0  0  0
    7.2849    2.5559    0.0000 C   0  0  0  0  0  0  0  0  0  0  0  0
    7.9993    2.1434    0.0000 C   0  0  0  0  0  0  0  0  0  0  0  0
    8.7138    2.5559    0.0000 O   0  0  0  0  0  0  0  0  0  0  0  0
    7.2849    3.3809    0.0000 O   0  0  0  0  0  0  0  0  0  0  0  0
    6.5704    1.3184    0.0000 O   0  0  0  0  0  0  0  0  0  0  0  0
    5.8559    3.3809    0.0000 O   0  0  0  0  0  0  0  0  0  0  0  0
    5.1414    1.3184    0.0000 O   0  0  0  0  0  0  0  0  0  0  0  0
    4.4270    3.3809    0.0000 O   0  0  0  0  0  0  0  0  0  0  0  0
  1  2  1  0  0  0  0
  2  3  2  0  0  0  0
  2  4  1  0  0  0  0
  4  5  1  0  0  0  0
  5  6  1  0  0  0  0
  6  7  1  0  0  0  0
  7  8  1  0  0  0  0
  8  9  1  0  0  0  0
  9 10  1  0  0  0  0
  8 11  1  0  0  0  0
  7 12  1  0  0  0  0
  6 13  1  0  0  0  0
  5 14  1  0  0  0  0
  4 15  1  0  0  0  0
M  END
> <RowID>
888

> <Original_SMILES>
[Na+].[O-]C(=O)C(O)C(O)C(O)C(O)C(O)CO

> <Canonical_QSARr>
OCC(O)C(O)C(O)C(O)C(O)C(O)=O

> <InChI_Code_QSARr>
InChI=1S/C7H14O8/c8-1-2(9)3(10)4(11)5(12)6(13)7(14)15/h2-6,8-13H,1H2,(H,14,15)

> <InChI Key_QSARr>
KWMLJOLKUYYJFJ-UHFFFAOYSA-N

> <Salt_Solvent>
[Na+]

> <Salt_Solvent_ID>
110

> <Number of connected components>
2

$$$$
Molecule_890
  Mrv2316 01072400032D          

 14 14  0  0  0  0            999 V2000
    3.3172    0.0295    0.0000 C   0  0  0  0  0  0  0  0  0  0  0  0
    2.6027    0.4420    0.0000 C   0  0  0  0  0  0  0  0  0  0  0  0
    1.8882    0.0295    0.0000 N   0  0  0  0  0  0  0  0  0  0  0  0
    1.1738    0.4420    0.0000 C   0  0  0  0  0  0  0  0  0  0  0  0
    1.1738    1.2670    0.0000 N   0  0  0  0  0  0  0  0  0  0  0  0
    0.4593    1.6795    0.0000 C   0  0  0  0  0  0  0  0  0  0  0  0
    0.4593    2.5045    0.0000 Cl  0  0  0  0  0  0  0  0  0  0  0  0
   -0.2552    1.2670    0.0000 N   0  0  0  0  0  0  0  0  0  0  0  0
   -0.2552    0.4420    0.0000 C   0  0  0  0  0  0  0  0  0  0  0  0
   -0.9696    0.0295    0.0000 N   0  0  0  0  0  0  0  0  0  0  0  0
   -1.6841    0.4420    0.0000 C   0  0  0  0  0  0  0  0  0  0  0  0
   -2.3986    0.0295    0.0000 C   0  0  0  0  0  0  0  0  0  0  0  0
   -1.6841    1.2670    0.0000 C   0  0  0  0  0  0  0  0  0  0  0  0
    0.4593    0.0295    0.0000 N   0  0  0  0  0  0  0  0  0  0  0  0
  1  2  1  0  0  0  0
  2  3  1  0  0  0  0
  3  4  1  0  0  0  0
  5  4  1  0  0  0  0
  6  5  2  0  0  0  0
  6  7  1  0  0  0  0
  8  6  1  0  0  0  0
  9  8  2  0  0  0  0
  9 10  1  0  0  0  0
 10 11  1  0  0  0  0
 11 12  1  0  0  0  0
 11 13  1  0  0  0  0
 14  9  1  0  0  0  0
  4 14  2  0  0  0  0
M  END
> <RowID>
890

> <Original_SMILES>
CCNC1N=C(Cl)N=C(NC(C)C)N=1

> <Canonical_QSARr>
CCNC1N=C(Cl)N=C(NC(C)C)N=1

> <InChI_Code_QSARr>
InChI=1S/C8H14ClN5/c1-4-10-7-12-6(9)13-8(14-7)11-5(2)3/h5H,4H2,1-3H3,(H2,10,11,12,13,14)

> <InChI Key_QSARr>
MXWJVTOOROXGIU-UHFFFAOYSA-N

> <Salt_Solvent>


> <Salt_Solvent_ID>
0

> <Number of connected components>
1

$$$$
Molecule_891
  Mrv2316 01072400032D          

 14 14  0  0  0  0            999 V2000
   -0.2182   -0.2274    0.0000 C   0  0  0  0  0  0  0  0  0  0  0  0
    0.0640   -1.0027    0.0000 C   0  0  0  0  0  0  0  0  0  0  0  0
   -0.4663   -1.6347    0.0000 C   0  0  0  0  0  0  0  0  0  0  0  0
    0.2481   -2.0472    0.0000 C   0  0  0  0  0  0  0  0  0  0  0  0
    0.9626   -1.6347    0.0000 O   0  0  0  0  0  0  0  0  0  0  0  0
    1.6771   -2.0472    0.0000 C   0  0  0  0  0  0  0  0  0  0  0  0
    1.6771   -2.8722    0.0000 O   0  0  0  0  0  0  0  0  0  0  0  0
    2.3915   -1.6347    0.0000 C   0  0  0  0  0  0  0  0  0  0  0  0
    3.1060   -2.0472    0.0000 C   0  0  0  0  0  0  0  0  0  0  0  0
   -0.9966   -1.0027    0.0000 C   0  0  0  0  0  0  0  0  0  0  0  0
   -1.8091   -1.1459    0.0000 O   0  0  0  0  0  0  0  0  0  0  0  0
   -2.0913   -1.9212    0.0000 C   0  0  0  0  0  0  0  0  0  0  0  0
   -1.5610   -2.5532    0.0000 O   0  0  0  0  0  0  0  0  0  0  0  0
   -0.7485   -2.4099    0.0000 C   0  0  0  0  0  0  0  0  0  0  0  0
  1  2  1  0  0  0  0
  2  3  1  0  0  0  0
  3  4  1  0  0  0  0
  4  5  1  0  0  0  0
  5  6  1  0  0  0  0
  6  7  2  0  0  0  0
  6  8  1  0  0  0  0
  8  9  2  0  0  0  0
 10  3  1  0  0  0  0
 11 10  1  0  0  0  0
 12 11  1  0  0  0  0
 13 12  1  0  0  0  0
 14 13  1  0  0  0  0
  3 14  1  0  0  0  0
M  END
> <RowID>
891

> <Original_SMILES>
CCC1(COC(=O)C=C)COCOC1

> <Canonical_QSARr>
CCC1(COC(=O)C=C)COCOC1

> <InChI_Code_QSARr>
InChI=1S/C10H16O4/c1-3-9(11)14-7-10(4-2)5-12-8-13-6-10/h3H,1,4-8H2,2H3

> <InChI Key_QSARr>
STGXUBIZGYMIRM-UHFFFAOYSA-N

> <Salt_Solvent>


> <Salt_Solvent_ID>
0

> <Number of connected components>
1

$$$$
Molecule_892
  Mrv2316 01072400032D          

 21 22  0  0  0  0            999 V2000
    2.1094   -3.5750    0.0000 C   0  0  0  0  0  0  0  0  0  0  0  0
    1.3949   -3.1625    0.0000 C   0  0  0  0  0  0  0  0  0  0  0  0
    0.6804   -3.5750    0.0000 C   0  0  0  0  0  0  0  0  0  0  0  0
    1.3949   -2.3375    0.0000 C   0  0  0  0  0  0  0  0  0  0  0  0
    2.1094   -1.9250    0.0000 C   0  0  0  0  0  0  0  0  0  0  0  0
    2.1094   -1.1000    0.0000 C   0  0  0  0  0  0  0  0  0  0  0  0
    1.3949   -0.6875    0.0000 C   0  0  0  0  0  0  0  0  0  0  0  0
    1.3949    0.1375    0.0000 C   0  0  0  0  0  0  0  0  0  0  0  0
    0.6804   -1.1000    0.0000 C   0  0  0  0  0  0  0  0  0  0  0  0
    0.6804   -1.9250    0.0000 C   0  0  0  0  0  0  0  0  0  0  0  0
   -0.0340   -2.3375    0.0000 C   0  0  0  0  0  0  0  0  0  0  0  0
   -0.0340   -3.1625    0.0000 O   0  0  0  0  0  0  0  0  0  0  0  0
   -0.7485   -1.9250    0.0000 N   0  0  0  0  0  0  0  0  0  0  0  0
   -1.4630   -2.3375    0.0000 C   0  0  0  0  0  0  0  0  0  0  0  0
   -2.1774   -1.9250    0.0000 C   0  0  0  0  0  0  0  0  0  0  0  0
   -2.8919   -2.3375    0.0000 C   0  0  0  0  0  0  0  0  0  0  0  0
   -2.8919   -3.1625    0.0000 C   0  0  0  0  0  0  0  0  0  0  0  0
   -3.6064   -3.5750    0.0000 O   0  0  0  0  0  0  0  0  0  0  0  0
   -3.6064   -4.4000    0.0000 C   0  0  0  0  0  0  0  0  0  0  0  0
   -2.1774   -3.5750    0.0000 C   0  0  0  0  0  0  0  0  0  0  0  0
   -1.4630   -3.1625    0.0000 C   0  0  0  0  0  0  0  0  0  0  0  0
  1  2  1  0  0  0  0
  2  3  1  0  0  0  0
  2  4  1  0  0  0  0
  5  4  1  0  0  0  0
  6  5  1  0  0  0  0
  7  6  1  0  0  0  0
  7  8  1  0  0  0  0
  9  7  1  0  0  0  0
 10  9  1  0  0  0  0
  4 10  1  0  0  0  0
 10 11  1  0  0  0  0
 11 12  2  0  0  0  0
 11 13  1  0  0  0  0
 13 14  1  0  0  0  0
 15 14  1  0  0  0  0
 16 15  2  0  0  0  0
 17 16  1  0  0  0  0
 17 18  1  0  0  0  0
 18 19  1  0  0  0  0
 20 17  2  0  0  0  0
 21 20  1  0  0  0  0
 14 21  2  0  0  0  0
M  END
> <RowID>
892

> <Original_SMILES>
CC(C)C1CCC(C)CC1C(=O)NC1C=CC(=CC=1)OC

> <Canonical_QSARr>
CC(C)C1CCC(C)CC1C(=O)NC1C=CC(=CC=1)OC

> <InChI_Code_QSARr>
InChI=1S/C18H27NO2/c1-12(2)16-10-5-13(3)11-17(16)18(20)19-14-6-8-15(21-4)9-7-14/h6-9,12-13,16-17H,5,10-11H2,1-4H3,(H,19,20)

> <InChI Key_QSARr>
HNSGVPAAXJJOPQ-UHFFFAOYSA-N

> <Salt_Solvent>


> <Salt_Solvent_ID>
0

> <Number of connected components>
1

$$$$
Molecule_893
  Mrv2316 01072400032D          

 11 11  0  0  0  0            999 V2000
    1.0392    3.3000    0.0000 C   0  0  0  0  0  0  0  0  0  0  0  0
    1.0392    2.4750    0.0000 C   0  0  0  0  0  0  0  0  0  0  0  0
    1.7537    2.0625    0.0000 C   0  0  0  0  0  0  0  0  0  0  0  0
    0.3248    2.0625    0.0000 C   0  0  0  0  0  0  0  0  0  0  0  0
   -0.3897    2.4750    0.0000 O   0  0  0  0  0  0  0  0  0  0  0  0
    0.3248    1.2375    0.0000 C   0  0  0  0  0  0  0  0  0  0  0  0
   -0.3897    0.8250    0.0000 C   0  0  0  0  0  0  0  0  0  0  0  0
   -0.3897   -0.0000    0.0000 C   0  0  0  0  0  0  0  0  0  0  0  0
    0.3248   -0.4125    0.0000 C   0  0  0  0  0  0  0  0  0  0  0  0
    1.0392    0.0000    0.0000 C   0  0  0  0  0  0  0  0  0  0  0  0
    1.0392    0.8250    0.0000 C   0  0  0  0  0  0  0  0  0  0  0  0
  1  2  1  0  0  0  0
  2  3  1  0  0  0  0
  2  4  1  0  0  0  0
  4  5  2  0  0  0  0
  4  6  1  0  0  0  0
  7  6  1  0  0  0  0
  8  7  2  0  0  0  0
  9  8  1  0  0  0  0
 10  9  2  0  0  0  0
 11 10  1  0  0  0  0
  6 11  2  0  0  0  0
M  END
> <RowID>
893

> <Original_SMILES>
CC(C)C(=O)C1C=CC=CC=1

> <Canonical_QSARr>
CC(C)C(=O)C1C=CC=CC=1

> <InChI_Code_QSARr>
InChI=1S/C10H12O/c1-8(2)10(11)9-6-4-3-5-7-9/h3-8H,1-2H3

> <InChI Key_QSARr>
BSMGLVDZZMBWQB-UHFFFAOYSA-N

> <Salt_Solvent>


> <Salt_Solvent_ID>
0

> <Number of connected components>
1

$$$$
Molecule_894
  Mrv2316 01072400032D          

 56 59  0  0  0  0            999 V2000
   -6.1113    5.2078    0.0000 C   0  0  0  0  0  0  0  0  0  0  0  0
   -5.3968    5.6203    0.0000 C   0  0  0  0  0  0  0  0  0  0  0  0
   -5.8093    6.3348    0.0000 C   0  0  0  0  0  0  0  0  0  0  0  0
   -4.9843    4.9058    0.0000 C   0  0  0  0  0  0  0  0  0  0  0  0
   -4.6823    6.0328    0.0000 N   0  0  0  0  0  0  0  0  0  0  0  0
   -3.9679    5.6203    0.0000 C   0  0  0  0  0  0  0  0  0  0  0  0
   -3.2534    6.0328    0.0000 O   0  0  0  0  0  0  0  0  0  0  0  0
   -3.9679    4.7953    0.0000 C   0  0  0  0  0  0  0  0  0  0  0  0
   -4.6823    4.3828    0.0000 C   0  0  0  0  0  0  0  0  0  0  0  0
   -4.6823    3.5578    0.0000 C   0  0  0  0  0  0  0  0  0  0  0  0
   -3.9679    3.1453    0.0000 C   0  0  0  0  0  0  0  0  0  0  0  0
   -3.9679    2.3203    0.0000 N   0  0  0  0  0  0  0  0  0  0  0  0
   -3.2534    1.9078    0.0000 C   0  0  0  0  0  0  0  0  0  0  0  0
   -3.2534    1.0828    0.0000 N   0  0  0  0  0  0  0  0  0  0  0  0
   -2.5389    0.6703    0.0000 C   0  0  0  0  0  0  0  0  0  0  0  0
   -2.5389   -0.1547    0.0000 N   0  0  0  0  0  0  0  0  0  0  0  0
   -3.2534   -0.5672    0.0000 C   0  0  0  0  0  0  0  0  0  0  0  0
   -3.9679   -0.1547    0.0000 C   0  0  0  0  0  0  0  0  0  0  0  0
   -4.6823   -0.5672    0.0000 C   0  0  0  0  0  0  0  0  0  0  0  0
   -4.6823   -1.3922    0.0000 C   0  0  0  0  0  0  0  0  0  0  0  0
   -5.3968   -1.8047    0.0000 C   0  0  0  0  0  0  0  0  0  0  0  0
   -6.1113   -1.3922    0.0000 O   0  0  0  0  0  0  0  0  0  0  0  0
   -5.3968   -2.6297    0.0000 O   0  0  0  0  0  0  0  0  0  0  0  0
   -6.1113   -3.0422    0.0000 C   0  0  0  0  0  0  0  0  0  0  0  0
   -6.1113   -3.8672    0.0000 C   0  0  0  0  0  0  0  0  0  0  0  0
   -6.8258   -4.2797    0.0000 C   0  0  0  0  0  0  0  0  0  0  0  0
   -6.8258   -5.1047    0.0000 C   0  0  0  0  0  0  0  0  0  0  0  0
   -7.5402   -5.5172    0.0000 C   0  0  0  0  0  0  0  0  0  0  0  0
   -7.5402   -6.3422    0.0000 C   0  0  0  0  0  0  0  0  0  0  0  0
   -5.3968   -4.2797    0.0000 C   0  0  0  0  0  0  0  0  0  0  0  0
   -5.3968   -5.1047    0.0000 C   0  0  0  0  0  0  0  0  0  0  0  0
   -3.9679   -1.8047    0.0000 C   0  0  0  0  0  0  0  0  0  0  0  0
   -3.2534   -1.3922    0.0000 C   0  0  0  0  0  0  0  0  0  0  0  0
   -1.8245    1.0828    0.0000 N   0  0  0  0  0  0  0  0  0  0  0  0
   -1.8245    1.9078    0.0000 C   0  0  0  0  0  0  0  0  0  0  0  0
   -1.1100    2.3203    0.0000 N   0  0  0  0  0  0  0  0  0  0  0  0
   -1.1100    3.1453    0.0000 C   0  0  0  0  0  0  0  0  0  0  0  0
   -0.3955    3.5578    0.0000 C   0  0  0  0  0  0  0  0  0  0  0  0
   -0.3955    4.3828    0.0000 C   0  0  0  0  0  0  0  0  0  0  0  0
   -1.1100    4.7953    0.0000 C   0  0  0  0  0  0  0  0  0  0  0  0
   -1.1100    5.6203    0.0000 C   0  0  0  0  0  0  0  0  0  0  0  0
   -1.8245    6.0328    0.0000 O   0  0  0  0  0  0  0  0  0  0  0  0
   -0.3955    6.0328    0.0000 O   0  0  0  0  0  0  0  0  0  0  0  0
    0.3189    5.6203    0.0000 C   0  0  0  0  0  0  0  0  0  0  0  0
    1.0334    6.0328    0.0000 C   0  0  0  0  0  0  0  0  0  0  0  0
    1.7479    5.6203    0.0000 C   0  0  0  0  0  0  0  0  0  0  0  0
    2.4624    6.0328    0.0000 C   0  0  0  0  0  0  0  0  0  0  0  0
    3.1768    5.6203    0.0000 C   0  0  0  0  0  0  0  0  0  0  0  0
    3.8913    6.0328    0.0000 C   0  0  0  0  0  0  0  0  0  0  0  0
    1.0334    6.8578    0.0000 C   0  0  0  0  0  0  0  0  0  0  0  0
    1.7479    7.2703    0.0000 C   0  0  0  0  0  0  0  0  0  0  0  0
   -1.8245    4.3828    0.0000 C   0  0  0  0  0  0  0  0  0  0  0  0
   -1.8245    3.5578    0.0000 C   0  0  0  0  0  0  0  0  0  0  0  0
   -2.5389    2.3203    0.0000 N   0  0  0  0  0  0  0  0  0  0  0  0
   -3.2534    3.5578    0.0000 C   0  0  0  0  0  0  0  0  0  0  0  0
   -3.2534    4.3828    0.0000 C   0  0  0  0  0  0  0  0  0  0  0  0
  1  2  1  0  0  0  0
  2  3  1  0  0  0  0
  2  4  1  0  0  0  0
  2  5  1  0  0  0  0
  5  6  1  0  0  0  0
  6  7  2  0  0  0  0
  6  8  1  0  0  0  0
  9  8  1  0  0  0  0
 10  9  2  0  0  0  0
 11 10  1  0  0  0  0
 11 12  1  0  0  0  0
 12 13  1  0  0  0  0
 14 13  1  0  0  0  0
 15 14  2  0  0  0  0
 15 16  1  0  0  0  0
 16 17  1  0  0  0  0
 18 17  1  0  0  0  0
 19 18  2  0  0  0  0
 20 19  1  0  0  0  0
 20 21  1  0  0  0  0
 21 22  2  0  0  0  0
 21 23  1  0  0  0  0
 23 24  1  0  0  0  0
 24 25  1  0  0  0  0
 25 26  1  0  0  0  0
 26 27  1  0  0  0  0
 27 28  1  0  0  0  0
 28 29  1  0  0  0  0
 25 30  1  0  0  0  0
 30 31  1  0  0  0  0
 32 20  2  0  0  0  0
 33 32  1  0  0  0  0
 17 33  2  0  0  0  0
 34 15  1  0  0  0  0
 35 34  2  0  0  0  0
 35 36  1  0  0  0  0
 36 37  1  0  0  0  0
 38 37  1  0  0  0  0
 39 38  2  0  0  0  0
 40 39  1  0  0  0  0
 40 41  1  0  0  0  0
 41 42  2  0  0  0  0
 41 43  1  0  0  0  0
 43 44  1  0  0  0  0
 44 45  1  0  0  0  0
 45 46  1  0  0  0  0
 46 47  1  0  0  0  0
 47 48  1  0  0  0  0
 48 49  1  0  0  0  0
 45 50  1  0  0  0  0
 50 51  1  0  0  0  0
 52 40  2  0  0  0  0
 53 52  1  0  0  0  0
 37 53  2  0  0  0  0
 54 35  1  0  0  0  0
 13 54  2  0  0  0  0
 55 11  2  0  0  0  0
 56 55  1  0  0  0  0
  8 56  2  0  0  0  0
M  END
> <RowID>
894

> <Original_SMILES>
CC(C)(C)NC(=O)C1C=CC(=CC=1)NC1N=C(NC2C=CC(=CC=2)C(=O)OCC(CCCC)CC)N=C(NC2C=CC(=CC=2)C(=O)OCC(CCCC)CC)N=1

> <Canonical_QSARr>
CC(C)(C)NC(=O)C1C=CC(=CC=1)NC1N=C(NC2C=CC(=CC=2)C(=O)OCC(CCCC)CC)N=C(NC2C=CC(=CC=2)C(=O)OCC(CCCC)CC)N=1

> <InChI_Code_QSARr>
InChI=1S/C44H59N7O5/c1-8-12-14-30(10-3)28-55-39(53)33-18-24-36(25-19-33)46-42-48-41(45-35-22-16-32(17-23-35)38(52)51-44(5,6)7)49-43(50-42)47-37-26-20-34(21-27-37)40(54)56-29-31(11-4)15-13-9-2/h16-27,30-31H,8-15,28-29H2,1-7H3,(H,51,52)(H3,45,46,47,48,49,50)

> <InChI Key_QSARr>
OSCJHTSDLYVCQC-UHFFFAOYSA-N

> <Salt_Solvent>


> <Salt_Solvent_ID>
0

> <Number of connected components>
1

$$$$
Molecule_895
  Mrv2316 01072400032D          

 23 24  0  0  0  0            999 V2000
    0.7145   -8.6984    0.0000 C   0  0  0  0  0  0  0  0  0  0  0  0
    1.4289   -8.2859    0.0000 O   0  0  0  0  0  0  0  0  0  0  0  0
    1.4289   -7.4609    0.0000 C   0  0  0  0  0  0  0  0  0  0  0  0
    2.1434   -7.0484    0.0000 C   0  0  0  0  0  0  0  0  0  0  0  0
    2.1434   -6.2234    0.0000 C   0  0  0  0  0  0  0  0  0  0  0  0
    1.4289   -5.8109    0.0000 C   0  0  0  0  0  0  0  0  0  0  0  0
    1.4289   -4.9859    0.0000 C   0  0  0  0  0  0  0  0  0  0  0  0
    0.7145   -4.5734    0.0000 O   0  0  0  0  0  0  0  0  0  0  0  0
    2.1434   -4.5734    0.0000 N   0  0  0  0  0  0  0  0  0  0  0  0
    2.1434   -3.7484    0.0000 C   0  0  0  0  0  0  0  0  0  0  0  0
    2.8579   -3.3359    0.0000 C   0  0  0  0  0  0  0  0  0  0  0  0
    2.8579   -2.5109    0.0000 C   0  0  0  0  0  0  0  0  0  0  0  0
    2.1434   -2.0984    0.0000 C   0  0  0  0  0  0  0  0  0  0  0  0
    2.1434   -1.2734    0.0000 C   0  0  0  0  0  0  0  0  0  0  0  0
    1.4289   -0.8609    0.0000 N   0  0  0  0  0  0  0  0  0  0  0  0
    2.8579   -0.8609    0.0000 O   0  0  0  0  0  0  0  0  0  0  0  0
    1.4289   -2.5109    0.0000 C   0  0  0  0  0  0  0  0  0  0  0  0
    1.4289   -3.3359    0.0000 C   0  0  0  0  0  0  0  0  0  0  0  0
    0.7145   -6.2234    0.0000 C   0  0  0  0  0  0  0  0  0  0  0  0
    0.7145   -7.0484    0.0000 C   0  0  0  0  0  0  0  0  0  0  0  0
   -0.0000   -7.4609    0.0000 N   0  3  0  0  0  0  0  0  0  0  0  0
   -0.0000   -8.2859    0.0000 O   0  5  0  0  0  0  0  0  0  0  0  0
   -0.7145   -7.0484    0.0000 O   0  0  0  0  0  0  0  0  0  0  0  0
  1  2  1  0  0  0  0
  2  3  1  0  0  0  0
  4  3  1  0  0  0  0
  5  4  2  0  0  0  0
  6  5  1  0  0  0  0
  6  7  1  0  0  0  0
  7  8  2  0  0  0  0
  7  9  1  0  0  0  0
  9 10  1  0  0  0  0
 11 10  1  0  0  0  0
 12 11  2  0  0  0  0
 13 12  1  0  0  0  0
 13 14  1  0  0  0  0
 14 15  1  0  0  0  0
 14 16  2  0  0  0  0
 17 13  2  0  0  0  0
 18 17  1  0  0  0  0
 10 18  2  0  0  0  0
 19  6  2  0  0  0  0
 20 19  1  0  0  0  0
  3 20  2  0  0  0  0
 20 21  1  0  0  0  0
 21 22  1  0  0  0  0
 21 23  2  0  0  0  0
M  CHG  2  21   1  22  -1
M  END
> <RowID>
895

> <Original_SMILES>
COC1C=CC(=CC=1[N+]([O-])=O)C(=O)NC1C=CC(=CC=1)C(N)=O

> <Canonical_QSARr>
COC1C=CC(=CC=1[N+]([O-])=O)C(=O)NC1C=CC(=CC=1)C(N)=O

> <InChI_Code_QSARr>
InChI=1S/C15H13N3O5/c1-23-13-7-4-10(8-12(13)18(21)22)15(20)17-11-5-2-9(3-6-11)14(16)19/h2-8H,1H3,(H2,16,19)(H,17,20)

> <InChI Key_QSARr>
JXHSJUAPWJKPLE-UHFFFAOYSA-N

> <Salt_Solvent>


> <Salt_Solvent_ID>
0

> <Number of connected components>
1

$$$$
Molecule_896
  Mrv2316 01072400032D          

 37 40  0  0  0  0            999 V2000
   -0.5230   -1.3620    0.0000 C   0  0  0  0  0  0  0  0  0  0  0  0
    0.3020   -1.3620    0.0000 C   0  0  0  0  0  0  0  0  0  0  0  0
    0.7145   -2.0765    0.0000 C   0  0  0  0  0  0  0  0  0  0  0  0
    1.5395   -2.0765    0.0000 C   0  0  0  0  0  0  0  0  0  0  0  0
    1.9520   -2.7909    0.0000 C   0  0  0  0  0  0  0  0  0  0  0  0
    2.7770   -2.7909    0.0000 C   0  0  0  0  0  0  0  0  0  0  0  0
    3.1895   -2.0765    0.0000 N   0  0  0  0  0  0  0  0  0  0  0  0
    2.7770   -1.3620    0.0000 C   0  0  0  0  0  0  0  0  0  0  0  0
    1.9520   -1.3620    0.0000 C   0  0  0  0  0  0  0  0  0  0  0  0
    1.5395   -0.6475    0.0000 C   0  0  0  0  0  0  0  0  0  0  0  0
    1.9520    0.0669    0.0000 C   0  0  0  0  0  0  0  0  0  0  0  0
    1.5395    0.7814    0.0000 C   0  0  0  0  0  0  0  0  0  0  0  0
    1.9520    1.4959    0.0000 C   0  0  0  0  0  0  0  0  0  0  0  0
    2.7770    1.4959    0.0000 C   0  0  0  0  0  0  0  0  0  0  0  0
    3.1895    0.7814    0.0000 C   0  0  0  0  0  0  0  0  0  0  0  0
    2.7770    0.0669    0.0000 C   0  0  0  0  0  0  0  0  0  0  0  0
    3.1895   -0.6475    0.0000 C   0  0  0  0  0  0  0  0  0  0  0  0
    4.0145   -0.6475    0.0000 N   0  0  0  0  0  0  0  0  0  0  0  0
    4.4270   -1.3620    0.0000 N   0  0  0  0  0  0  0  0  0  0  0  0
    5.2520   -1.3620    0.0000 C   0  0  0  0  0  0  0  0  0  0  0  0
    5.6645   -2.0765    0.0000 C   0  0  0  0  0  0  0  0  0  0  0  0
    6.4895   -2.0765    0.0000 C   0  0  0  0  0  0  0  0  0  0  0  0
    6.9020   -1.3620    0.0000 C   0  0  0  0  0  0  0  0  0  0  0  0
    7.7270   -1.3620    0.0000 N   0  0  0  0  0  0  0  0  0  0  0  0
    8.1395   -2.0765    0.0000 N   0  0  0  0  0  0  0  0  0  0  0  0
    8.9645   -2.0765    0.0000 C   0  0  0  0  0  0  0  0  0  0  0  0
    9.3770   -2.7909    0.0000 C   0  0  0  0  0  0  0  0  0  0  0  0
   10.2020   -2.7909    0.0000 C   0  0  0  0  0  0  0  0  0  0  0  0
   10.6145   -2.0765    0.0000 C   0  0  0  0  0  0  0  0  0  0  0  0
   10.2020   -1.3620    0.0000 C   0  0  0  0  0  0  0  0  0  0  0  0
    9.3770   -1.3620    0.0000 C   0  0  0  0  0  0  0  0  0  0  0  0
    8.9645   -0.6475    0.0000 C   0  0  0  0  0  0  0  0  0  0  0  0
    6.4895   -0.6475    0.0000 C   0  0  0  0  0  0  0  0  0  0  0  0
    5.6645   -0.6475    0.0000 C   0  0  0  0  0  0  0  0  0  0  0  0
    5.2520    0.0669    0.0000 C   0  0  0  0  0  0  0  0  0  0  0  0
    1.5395   -3.5054    0.0000 C   0  0  0  0  0  0  0  0  0  0  0  0
    1.9520   -4.2199    0.0000 C   0  0  0  0  0  0  0  0  0  0  0  0
  1  2  1  0  0  0  0
  2  3  1  0  0  0  0
  3  4  1  0  0  0  0
  4  5  1  0  0  0  0
  5  6  1  0  0  0  0
  6  7  1  0  0  0  0
  7  8  1  0  0  0  0
  9  8  1  0  0  0  0
 10  9  2  0  0  0  0
 11 10  1  0  0  0  0
 11 12  1  0  0  0  0
 12 13  2  0  0  0  0
 13 14  1  0  0  0  0
 14 15  2  0  0  0  0
 15 16  1  0  0  0  0
 16 11  2  0  0  0  0
 17 16  1  0  0  0  0
  8 17  2  0  0  0  0
 18 17  1  4  0  0  0
 18 19  2  0  0  0  0
 19 20  1  0  0  0  0
 21 20  1  0  0  0  0
 22 21  2  0  0  0  0
 23 22  1  0  0  0  0
 24 23  1  4  0  0  0
 24 25  2  0  0  0  0
 25 26  1  0  0  0  0
 27 26  1  0  0  0  0
 28 27  2  0  0  0  0
 29 28  1  0  0  0  0
 30 29  2  0  0  0  0
 31 30  1  0  0  0  0
 26 31  2  0  0  0  0
 31 32  1  0  0  0  0
 33 23  2  0  0  0  0
 34 33  1  0  0  0  0
 20 34  2  0  0  0  0
 34 35  1  0  0  0  0
  5 36  1  0  0  0  0
 36 37  1  0  0  0  0
M  END
> <RowID>
896

> <Original_SMILES>
CCCCC(CNC1C=CC2C=CC=CC=2C=1N=NC1C=CC(=CC=1C)N=NC1C=CC=CC=1C)CC

> <Canonical_QSARr>
CCCCC(CNC1C=CC2C=CC=CC=2C=1N=NC1C=CC(=CC=1C)N=NC1C=CC=CC=1C)CC

> <InChI_Code_QSARr>
InChI=1S/C32H37N5/c1-5-7-13-25(6-2)22-33-31-19-17-26-14-9-10-15-28(26)32(31)37-36-30-20-18-27(21-24(30)4)34-35-29-16-11-8-12-23(29)3/h8-12,14-21,25,33H,5-7,13,22H2,1-4H3

> <InChI Key_QSARr>
HQAXWOAOPDPYHY-UHFFFAOYSA-N

> <Salt_Solvent>


> <Salt_Solvent_ID>
0

> <Number of connected components>
1

$$$$
Molecule_898
  Mrv2316 01072400032D          

 18 17  0  0  0  0            999 V2000
   -3.9039    0.6039    0.0000 C   0  0  0  0  0  0  0  0  0  0  0  0
   -3.0789    0.6039    0.0000 O   0  0  0  0  0  0  0  0  0  0  0  0
   -2.6664   -0.1105    0.0000 C   0  0  0  0  0  0  0  0  0  0  0  0
   -1.8414   -0.1105    0.0000 C   0  0  0  0  0  0  0  0  0  0  0  0
   -1.4289   -0.8250    0.0000 O   0  0  0  0  0  0  0  0  0  0  0  0
   -0.6039   -0.8250    0.0000 Si  0  0  0  0  0  0  0  0  0  0  0  0
   -0.6039   -1.6500    0.0000 C   0  0  0  0  0  0  0  0  0  0  0  0
    0.1106   -2.0625    0.0000 C   0  0  0  0  0  0  0  0  0  0  0  0
    0.2211   -0.8250    0.0000 O   0  0  0  0  0  0  0  0  0  0  0  0
    0.6336   -1.5395    0.0000 C   0  0  0  0  0  0  0  0  0  0  0  0
    1.4586   -1.5395    0.0000 C   0  0  0  0  0  0  0  0  0  0  0  0
    1.8711   -2.2539    0.0000 O   0  0  0  0  0  0  0  0  0  0  0  0
    2.6961   -2.2539    0.0000 C   0  0  0  0  0  0  0  0  0  0  0  0
   -0.6039    0.0000    0.0000 O   0  0  0  0  0  0  0  0  0  0  0  0
    0.1106    0.4125    0.0000 C   0  0  0  0  0  0  0  0  0  0  0  0
    0.8250   -0.0000    0.0000 C   0  0  0  0  0  0  0  0  0  0  0  0
    1.5395    0.4125    0.0000 O   0  0  0  0  0  0  0  0  0  0  0  0
    2.2540   -0.0000    0.0000 C   0  0  0  0  0  0  0  0  0  0  0  0
  1  2  1  0  0  0  0
  2  3  1  0  0  0  0
  3  4  1  0  0  0  0
  4  5  1  0  0  0  0
  5  6  1  0  0  0  0
  6  7  1  0  0  0  0
  7  8  2  0  0  0  0
  6  9  1  0  0  0  0
  9 10  1  0  0  0  0
 10 11  1  0  0  0  0
 11 12  1  0  0  0  0
 12 13  1  0  0  0  0
  6 14  1  0  0  0  0
 14 15  1  0  0  0  0
 15 16  1  0  0  0  0
 16 17  1  0  0  0  0
 17 18  1  0  0  0  0
M  END
> <RowID>
898

> <Original_SMILES>
COCCO[Si](C=C)(OCCOC)OCCOC

> <Canonical_QSARr>
COCCO[Si](C=C)(OCCOC)OCCOC

> <InChI_Code_QSARr>
InChI=1S/C11H24O6Si/c1-5-18(15-9-6-12-2,16-10-7-13-3)17-11-8-14-4/h5H,1,6-11H2,2-4H3

> <InChI Key_QSARr>
WOXXJEVNDJOOLV-UHFFFAOYSA-N

> <Salt_Solvent>


> <Salt_Solvent_ID>
0

> <Number of connected components>
1

$$$$
Molecule_899
  Mrv2316 01072400032D          

 66 72  0  0  0  0            999 V2000
   -0.1400   -0.9722    0.0000 O   0  0  0  0  0  0  0  0  0  0  0  0
    0.6158   -1.3030    0.0000 C   0  0  0  0  0  0  0  0  0  0  0  0
    1.3188   -0.7938    0.0000 C   0  0  0  0  0  0  0  0  0  0  0  0
    1.7449   -0.0363    0.0000 O   0  0  0  0  0  0  0  0  0  0  0  0
    2.3071    0.6428    0.0000 C   0  0  0  0  0  0  0  0  0  0  0  0
    2.2468    1.4932    0.0000 O   0  0  0  0  0  0  0  0  0  0  0  0
    2.9090    1.9887    0.0000 C   0  0  0  0  0  0  0  0  0  0  0  0
    2.8175    2.8086    0.0000 C   0  0  0  0  0  0  0  0  0  0  0  0
    3.4818    3.2978    0.0000 O   0  0  0  0  0  0  0  0  0  0  0  0
    3.7014    1.6345    0.0000 C   0  0  0  0  0  0  0  0  0  0  0  0
    4.5705    1.6442    0.0000 O   0  0  0  0  0  0  0  0  0  0  0  0
    5.4397    1.4969    0.0000 C   0  0  0  0  0  0  0  0  0  0  0  0
    6.1460    1.9743    0.0000 O   0  0  0  0  0  0  0  0  0  0  0  0
    6.9062    1.6486    0.0000 C   0  0  0  0  0  0  0  0  0  0  0  0
    7.5706    2.1378    0.0000 C   0  0  0  0  0  0  0  0  0  0  0  0
    8.3264    1.8070    0.0000 O   0  0  0  0  0  0  0  0  0  0  0  0
    6.9957    0.7852    0.0000 C   0  0  0  0  0  0  0  0  0  0  0  0
    7.4386    0.0374    0.0000 O   0  0  0  0  0  0  0  0  0  0  0  0
    7.7456   -0.7890    0.0000 C   0  0  0  0  0  0  0  0  0  0  0  0
    8.5122   -1.1620    0.0000 O   0  0  0  0  0  0  0  0  0  0  0  0
    8.6103   -1.9831    0.0000 C   0  0  0  0  0  0  0  0  0  0  0  0
    9.3661   -2.3139    0.0000 C   0  0  0  0  0  0  0  0  0  0  0  0
    9.4576   -3.1338    0.0000 O   0  0  0  0  0  0  0  0  0  0  0  0
    7.9073   -2.4923    0.0000 C   0  0  0  0  0  0  0  0  0  0  0  0
    7.4812   -3.2498    0.0000 O   0  0  0  0  0  0  0  0  0  0  0  0
    6.9190   -3.9289    0.0000 C   0  0  0  0  0  0  0  0  0  0  0  0
    6.9793   -4.7793    0.0000 O   0  0  0  0  0  0  0  0  0  0  0  0
    6.3172   -5.2748    0.0000 C   0  0  0  0  0  0  0  0  0  0  0  0
    6.4086   -6.0947    0.0000 C   0  0  0  0  0  0  0  0  0  0  0  0
    7.1644   -6.4255    0.0000 O   0  0  0  0  0  0  0  0  0  0  0  0
    5.5247   -4.9206    0.0000 C   0  0  0  0  0  0  0  0  0  0  0  0
    4.6556   -4.9303    0.0000 O   0  0  0  0  0  0  0  0  0  0  0  0
    3.7864   -4.7830    0.0000 C   0  0  0  0  0  0  0  0  0  0  0  0
    3.0801   -5.2604    0.0000 O   0  0  0  0  0  0  0  0  0  0  0  0
    2.3199   -4.9347    0.0000 C   0  0  0  0  0  0  0  0  0  0  0  0
    1.6556   -5.4239    0.0000 C   0  0  0  0  0  0  0  0  0  0  0  0
    0.8998   -5.0931    0.0000 O   0  0  0  0  0  0  0  0  0  0  0  0
    2.2304   -4.0713    0.0000 C   0  0  0  0  0  0  0  0  0  0  0  0
    1.7875   -3.3235    0.0000 O   0  0  0  0  0  0  0  0  0  0  0  0
    1.4805   -2.4971    0.0000 C   0  0  0  0  0  0  0  0  0  0  0  0
    2.1526   -1.9848    0.0000 O   0  0  0  0  0  0  0  0  0  0  0  0
    2.0697   -1.1555    0.0000 C   0  0  0  0  0  0  0  0  0  0  0  0
    2.7455   -0.6823    0.0000 C   0  0  0  0  0  0  0  0  0  0  0  0
    3.4932   -1.0310    0.0000 O   0  0  0  0  0  0  0  0  0  0  0  0
    0.7139   -2.1242    0.0000 C   0  0  0  0  0  0  0  0  0  0  0  0
    0.0417   -2.6025    0.0000 O   0  0  0  0  0  0  0  0  0  0  0  0
    2.9191   -3.6019    0.0000 C   0  0  0  0  0  0  0  0  0  0  0  0
    2.8473   -2.7800    0.0000 O   0  0  0  0  0  0  0  0  0  0  0  0
    3.6788   -3.9448    0.0000 C   0  0  0  0  0  0  0  0  0  0  0  0
    4.3419   -3.4539    0.0000 O   0  0  0  0  0  0  0  0  0  0  0  0
    5.4625   -4.0895    0.0000 C   0  0  0  0  0  0  0  0  0  0  0  0
    4.7148   -3.7408    0.0000 O   0  0  0  0  0  0  0  0  0  0  0  0
    6.1393   -3.6030    0.0000 C   0  0  0  0  0  0  0  0  0  0  0  0
    6.0457   -2.7833    0.0000 O   0  0  0  0  0  0  0  0  0  0  0  0
    7.1564   -2.1306    0.0000 C   0  0  0  0  0  0  0  0  0  0  0  0
    6.4806   -2.6038    0.0000 O   0  0  0  0  0  0  0  0  0  0  0  0
    7.0735   -1.3013    0.0000 C   0  0  0  0  0  0  0  0  0  0  0  0
    6.3169   -0.9725    0.0000 O   0  0  0  0  0  0  0  0  0  0  0  0
    6.3070    0.3158    0.0000 C   0  0  0  0  0  0  0  0  0  0  0  0
    6.3789   -0.5061    0.0000 O   0  0  0  0  0  0  0  0  0  0  0  0
    5.5473    0.6586    0.0000 C   0  0  0  0  0  0  0  0  0  0  0  0
    4.8842    0.1678    0.0000 O   0  0  0  0  0  0  0  0  0  0  0  0
    3.7636    0.8034    0.0000 C   0  0  0  0  0  0  0  0  0  0  0  0
    4.5113    0.4546    0.0000 O   0  0  0  0  0  0  0  0  0  0  0  0
    3.0869    0.3169    0.0000 C   0  0  0  0  0  0  0  0  0  0  0  0
    3.1804   -0.5028    0.0000 O   0  0  0  0  0  0  0  0  0  0  0  0
  1  2  1  0  0  0  0
  3  2  1  0  0  0  0
  3  4  1  0  0  0  0
  4  5  1  0  0  0  0
  6  5  1  0  0  0  0
  7  6  1  0  0  0  0
  7  8  1  0  0  0  0
  8  9  1  0  0  0  0
 10  7  1  0  0  0  0
 10 11  1  0  0  0  0
 11 12  1  0  0  0  0
 13 12  1  0  0  0  0
 14 13  1  0  0  0  0
 14 15  1  0  0  0  0
 15 16  1  0  0  0  0
 17 14  1  0  0  0  0
 17 18  1  0  0  0  0
 18 19  1  0  0  0  0
 20 19  1  0  0  0  0
 21 20  1  0  0  0  0
 21 22  1  0  0  0  0
 22 23  1  0  0  0  0
 24 21  1  0  0  0  0
 24 25  1  0  0  0  0
 25 26  1  0  0  0  0
 27 26  1  0  0  0  0
 28 27  1  0  0  0  0
 28 29  1  0  0  0  0
 29 30  1  0  0  0  0
 31 28  1  0  0  0  0
 31 32  1  0  0  0  0
 32 33  1  0  0  0  0
 34 33  1  0  0  0  0
 35 34  1  0  0  0  0
 35 36  1  0  0  0  0
 36 37  1  0  0  0  0
 38 35  1  0  0  0  0
 38 39  1  0  0  0  0
 39 40  1  0  0  0  0
 40 41  1  0  0  0  0
 41 42  1  0  0  0  0
 42  3  1  0  0  0  0
 42 43  1  0  0  0  0
 43 44  1  0  0  0  0
 45 40  1  0  0  0  0
  2 45  1  0  0  0  0
 45 46  1  0  0  0  0
 47 38  1  0  0  0  0
 47 48  1  0  0  0  0
 49 47  1  0  0  0  0
 33 49  1  0  0  0  0
 49 50  1  0  0  0  0
 51 31  1  0  0  0  0
 51 52  1  0  0  0  0
 53 51  1  0  0  0  0
 26 53  1  0  0  0  0
 53 54  1  0  0  0  0
 55 24  1  0  0  0  0
 55 56  1  0  0  0  0
 57 55  1  0  0  0  0
 19 57  1  0  0  0  0
 57 58  1  0  0  0  0
 59 17  1  0  0  0  0
 59 60  1  0  0  0  0
 61 59  1  0  0  0  0
 12 61  1  0  0  0  0
 61 62  1  0  0  0  0
 63 10  1  0  0  0  0
 63 64  1  0  0  0  0
 65 63  1  0  0  0  0
  5 65  1  0  0  0  0
 65 66  1  0  0  0  0
M  END
> <RowID>
899

> <Original_SMILES>
OC1C2OC3OC(CO)C(OC4OC(CO)C(OC5OC(CO)C(OC6OC(CO)C(OC7OC(CO)C(OC(OC2CO)C1O)C(O)C7O)C(O)C6O)C(O)C5O)C(O)C4O)C(O)C3O

> <Canonical_QSARr>
OC1C2OC3OC(CO)C(OC4OC(CO)C(OC5OC(CO)C(OC6OC(CO)C(OC7OC(CO)C(OC(OC2CO)C1O)C(O)C7O)C(O)C6O)C(O)C5O)C(O)C4O)C(O)C3O

> <InChI_Code_QSARr>
InChI=1S/C36H60O30/c37-1-7-25-13(43)19(49)31(55-7)62-26-8(2-38)57-33(21(51)15(26)45)64-28-10(4-40)59-35(23(53)17(28)47)66-30-12(6-42)60-36(24(54)18(30)48)65-29-11(5-41)58-34(22(52)16(29)46)63-27-9(3-39)56-32(61-25)20(50)14(27)44/h7-54H,1-6H2

> <InChI Key_QSARr>
HFHDHCJBZVLPGP-UHFFFAOYSA-N

> <Salt_Solvent>


> <Salt_Solvent_ID>
0

> <Number of connected components>
1

$$$$
Molecule_900
  Mrv2316 01072400032D          

 30 30  0  0  0  0            999 V2000
   -3.7152   -1.4850    0.0000 C   0  0  0  0  0  0  0  0  0  0  0  0
   -3.0008   -1.0725    0.0000 C   0  0  0  0  0  0  0  0  0  0  0  0
   -2.2863   -1.4850    0.0000 O   0  0  0  0  0  0  0  0  0  0  0  0
   -1.5718   -1.0725    0.0000 C   0  0  0  0  0  0  0  0  0  0  0  0
   -1.5718   -0.2475    0.0000 O   0  0  0  0  0  0  0  0  0  0  0  0
   -0.8574   -1.4850    0.0000 C   0  0  0  0  0  0  0  0  0  0  0  0
   -0.1429   -1.0725    0.0000 C   0  0  0  0  0  0  0  0  0  0  0  0
   -0.1429   -0.2475    0.0000 C   0  0  0  0  0  0  0  0  0  0  0  0
    0.5716    0.1650    0.0000 C   0  0  0  0  0  0  0  0  0  0  0  0
    0.5716    0.9900    0.0000 C   0  0  0  0  0  0  0  0  0  0  0  0
   -0.1429    1.4025    0.0000 C   0  0  0  0  0  0  0  0  0  0  0  0
   -0.1429    2.2275    0.0000 C   0  0  0  0  0  0  0  0  0  0  0  0
    0.5716    2.6400    0.0000 C   0  0  0  0  0  0  0  0  0  0  0  0
    0.5716    3.4650    0.0000 C   0  0  0  0  0  0  0  0  0  0  0  0
    1.2861    3.8775    0.0000 O   0  0  0  0  0  0  0  0  0  0  0  0
   -0.1429    3.8775    0.0000 O   0  0  0  0  0  0  0  0  0  0  0  0
   -0.1429    4.7025    0.0000 C   0  0  0  0  0  0  0  0  0  0  0  0
    0.5716    5.1150    0.0000 C   0  0  0  0  0  0  0  0  0  0  0  0
    1.2861    2.2275    0.0000 C   0  0  0  0  0  0  0  0  0  0  0  0
    2.0005    2.6400    0.0000 O   0  0  0  0  0  0  0  0  0  0  0  0
    1.2861    1.4025    0.0000 O   0  0  0  0  0  0  0  0  0  0  0  0
    2.0005    0.9900    0.0000 C   0  0  0  0  0  0  0  0  0  0  0  0
    2.0005    0.1650    0.0000 C   0  0  0  0  0  0  0  0  0  0  0  0
   -0.8574    0.9900    0.0000 C   0  0  0  0  0  0  0  0  0  0  0  0
   -0.8574    0.1650    0.0000 C   0  0  0  0  0  0  0  0  0  0  0  0
   -0.8574   -2.3100    0.0000 C   0  0  0  0  0  0  0  0  0  0  0  0
   -0.1429   -2.7225    0.0000 O   0  0  0  0  0  0  0  0  0  0  0  0
   -1.5718   -2.7225    0.0000 O   0  0  0  0  0  0  0  0  0  0  0  0
   -1.5718   -3.5475    0.0000 C   0  0  0  0  0  0  0  0  0  0  0  0
   -2.2863   -3.9600    0.0000 C   0  0  0  0  0  0  0  0  0  0  0  0
  1  2  1  0  0  0  0
  2  3  1  0  0  0  0
  3  4  1  0  0  0  0
  4  5  2  0  0  0  0
  4  6  1  0  0  0  0
  6  7  2  0  0  0  0
  7  8  1  0  0  0  0
  9  8  1  0  0  0  0
 10  9  2  0  0  0  0
 11 10  1  0  0  0  0
 11 12  1  0  0  0  0
 12 13  2  0  0  0  0
 13 14  1  0  0  0  0
 14 15  2  0  0  0  0
 14 16  1  0  0  0  0
 16 17  1  0  0  0  0
 17 18  1  0  0  0  0
 13 19  1  0  0  0  0
 19 20  2  0  0  0  0
 19 21  1  0  0  0  0
 21 22  1  0  0  0  0
 22 23  1  0  0  0  0
 24 11  2  0  0  0  0
 25 24  1  0  0  0  0
  8 25  2  0  0  0  0
  6 26  1  0  0  0  0
 26 27  2  0  0  0  0
 26 28  1  0  0  0  0
 28 29  1  0  0  0  0
 29 30  1  0  0  0  0
M  END
> <RowID>
900

> <Original_SMILES>
CCOC(=O)C(=CC1C=CC(C=C(C(=O)OCC)C(=O)OCC)=CC=1)C(=O)OCC

> <Canonical_QSARr>
CCOC(=O)C(=CC1C=CC(C=C(C(=O)OCC)C(=O)OCC)=CC=1)C(=O)OCC

> <InChI_Code_QSARr>
InChI=1S/C22H26O8/c1-5-27-19(23)17(20(24)28-6-2)13-15-9-11-16(12-10-15)14-18(21(25)29-7-3)22(26)30-8-4/h9-14H,5-8H2,1-4H3

> <InChI Key_QSARr>
YUOKTNQLLUHUEK-UHFFFAOYSA-N

> <Salt_Solvent>


> <Salt_Solvent_ID>
0

> <Number of connected components>
1

$$$$
Molecule_902
  Mrv2316 01072400032D          

 23 26  0  0  0  0            999 V2000
   -3.1034    1.1539    0.0000 C   0  0  0  0  0  0  0  0  0  0  0  0
   -2.6909    0.4394    0.0000 C   0  0  0  0  0  0  0  0  0  0  0  0
   -3.1034   -0.2750    0.0000 C   0  0  0  0  0  0  0  0  0  0  0  0
   -2.6909   -0.9895    0.0000 C   0  0  0  0  0  0  0  0  0  0  0  0
   -3.2429   -1.6026    0.0000 N   0  0  0  0  0  0  0  0  0  0  0  0
   -3.9966   -1.2670    0.0000 C   0  0  0  0  0  0  0  0  0  0  0  0
   -3.9104   -0.4466    0.0000 N   0  0  0  0  0  0  0  0  0  0  0  0
   -4.7111   -1.6795    0.0000 C   0  0  0  0  0  0  0  0  0  0  0  0
   -5.4256   -1.2670    0.0000 C   0  0  0  0  0  0  0  0  0  0  0  0
   -6.1400   -1.6795    0.0000 C   0  0  0  0  0  0  0  0  0  0  0  0
   -1.8659   -0.9895    0.0000 C   0  0  0  0  0  0  0  0  0  0  0  0
   -1.4534   -0.2750    0.0000 C   0  0  0  0  0  0  0  0  0  0  0  0
   -0.6284   -0.2750    0.0000 C   0  0  0  0  0  0  0  0  0  0  0  0
   -0.1435   -0.9425    0.0000 N   0  0  0  0  0  0  0  0  0  0  0  0
   -0.3984   -1.7271    0.0000 C   0  0  0  0  0  0  0  0  0  0  0  0
    0.6411   -0.6875    0.0000 C   0  0  0  0  0  0  0  0  0  0  0  0
    0.6411    0.1375    0.0000 C   0  0  0  0  0  0  0  0  0  0  0  0
    1.3556    0.5500    0.0000 C   0  0  0  0  0  0  0  0  0  0  0  0
    2.0701    0.1375    0.0000 C   0  0  0  0  0  0  0  0  0  0  0  0
    2.0701   -0.6875    0.0000 C   0  0  0  0  0  0  0  0  0  0  0  0
    1.3556   -1.1000    0.0000 C   0  0  0  0  0  0  0  0  0  0  0  0
   -0.1435    0.3924    0.0000 N   0  0  0  0  0  0  0  0  0  0  0  0
   -1.8659    0.4394    0.0000 C   0  0  0  0  0  0  0  0  0  0  0  0
  1  2  1  0  0  0  0
  3  2  1  0  0  0  0
  3  4  2  0  0  0  0
  4  5  1  0  0  0  0
  5  6  1  0  0  0  0
  6  7  2  0  0  0  0
  7  3  1  0  0  0  0
  6  8  1  0  0  0  0
  8  9  1  0  0  0  0
  9 10  1  0  0  0  0
 11  4  1  0  0  0  0
 12 11  2  0  0  0  0
 12 13  1  0  0  0  0
 14 13  1  0  0  0  0
 14 15  1  0  0  0  0
 16 14  1  0  0  0  0
 16 17  2  0  0  0  0
 17 18  1  0  0  0  0
 18 19  2  0  0  0  0
 19 20  1  0  0  0  0
 20 21  2  0  0  0  0
 21 16  1  0  0  0  0
 22 17  1  0  0  0  0
 13 22  2  0  0  0  0
 23 12  1  0  0  0  0
  2 23  2  0  0  0  0
M  END
> <RowID>
902

> <Original_SMILES>
O.CC1=CC(=CC2NC(CCC)=NC1=2)C1=NC2C=CC=CC=2N1C

> <Canonical_QSARr>
CC1=CC(=CC2NC(CCC)=NC1=2)C1=NC2C=CC=CC=2N1C

> <InChI_Code_QSARr>
InChI=1S/C19H20N4/c1-4-7-17-20-15-11-13(10-12(2)18(15)22-17)19-21-14-8-5-6-9-16(14)23(19)3/h5-6,8-11H,4,7H2,1-3H3,(H,20,22)

> <InChI Key_QSARr>
ILXRSCZVHSZGCS-UHFFFAOYSA-N

> <Salt_Solvent>
O

> <Salt_Solvent_ID>
80

> <Number of connected components>
2

$$$$
Molecule_903
  Mrv2316 01072400032D          

 29 30  0  0  0  0            999 V2000
   -1.4289    2.0767    0.0000 C   0  0  0  0  0  0  0  0  0  0  0  0
   -0.7145    1.6642    0.0000 C   0  0  0  0  0  0  0  0  0  0  0  0
   -0.0000    2.0767    0.0000 C   0  0  0  0  0  0  0  0  0  0  0  0
   -0.0000    2.9017    0.0000 C   0  0  0  0  0  0  0  0  0  0  0  0
    0.7145    3.3142    0.0000 C   0  0  0  0  0  0  0  0  0  0  0  0
    1.4289    2.9017    0.0000 C   0  0  0  0  0  0  0  0  0  0  0  0
    1.4289    2.0767    0.0000 O   0  0  0  0  0  0  0  0  0  0  0  0
    2.1434    1.6642    0.0000 C   0  0  0  0  0  0  0  0  0  0  0  0
    2.8579    2.0767    0.0000 O   0  0  0  0  0  0  0  0  0  0  0  0
    2.1434    0.8392    0.0000 C   0  0  0  0  0  0  0  0  0  0  0  0
    2.8579    0.4267    0.0000 C   0  0  0  0  0  0  0  0  0  0  0  0
    2.8579   -0.3983    0.0000 C   0  0  0  0  0  0  0  0  0  0  0  0
    2.1434   -0.8108    0.0000 C   0  0  0  0  0  0  0  0  0  0  0  0
    1.4289   -0.3983    0.0000 C   0  0  0  0  0  0  0  0  0  0  0  0
    1.4289    0.4267    0.0000 C   0  0  0  0  0  0  0  0  0  0  0  0
    0.7145    0.8392    0.0000 C   0  0  0  0  0  0  0  0  0  0  0  0
    0.7145    1.6642    0.0000 O   0  0  0  0  0  0  0  0  0  0  0  0
   -0.0000    0.4267    0.0000 C   0  0  0  0  0  0  0  0  0  0  0  0
   -0.7145    0.8392    0.0000 C   0  0  0  0  0  0  0  0  0  0  0  0
   -1.4289    0.4267    0.0000 C   0  0  0  0  0  0  0  0  0  0  0  0
   -1.4289   -0.3983    0.0000 C   0  0  0  0  0  0  0  0  0  0  0  0
   -2.1434   -0.8108    0.0000 N   0  0  0  0  0  0  0  0  0  0  0  0
   -2.8579   -0.3983    0.0000 C   0  0  0  0  0  0  0  0  0  0  0  0
   -2.8579    0.4267    0.0000 C   0  0  0  0  0  0  0  0  0  0  0  0
   -2.1434   -1.6358    0.0000 C   0  0  0  0  0  0  0  0  0  0  0  0
   -2.8579   -2.0483    0.0000 C   0  0  0  0  0  0  0  0  0  0  0  0
   -0.7145   -0.8108    0.0000 C   0  0  0  0  0  0  0  0  0  0  0  0
   -0.0000   -0.3983    0.0000 C   0  0  0  0  0  0  0  0  0  0  0  0
    0.7145   -0.8108    0.0000 O   0  0  0  0  0  0  0  0  0  0  0  0
  1  2  1  0  0  0  0
  2  3  1  0  0  0  0
  3  4  1  0  0  0  0
  4  5  1  0  0  0  0
  5  6  1  0  0  0  0
  6  7  1  0  0  0  0
  7  8  1  0  0  0  0
  8  9  2  0  0  0  0
  8 10  1  0  0  0  0
 11 10  2  0  0  0  0
 12 11  1  0  0  0  0
 13 12  2  0  0  0  0
 14 13  1  0  0  0  0
 15 14  2  0  0  0  0
 10 15  1  0  0  0  0
 15 16  1  0  0  0  0
 16 17  2  0  0  0  0
 16 18  1  0  0  0  0
 19 18  1  0  0  0  0
 20 19  2  0  0  0  0
 21 20  1  0  0  0  0
 21 22  1  0  0  0  0
 22 23  1  0  0  0  0
 23 24  1  0  0  0  0
 22 25  1  0  0  0  0
 25 26  1  0  0  0  0
 27 21  2  0  0  0  0
 28 27  1  0  0  0  0
 18 28  2  0  0  0  0
 28 29  1  0  0  0  0
M  END
> <RowID>
903

> <Original_SMILES>
CCCCCCOC(=O)C1=CC=CC=C1C(=O)C1C=CC(=CC=1O)N(CC)CC

> <Canonical_QSARr>
CCCCCCOC(=O)C1=CC=CC=C1C(=O)C1C=CC(=CC=1O)N(CC)CC

> <InChI_Code_QSARr>
InChI=1S/C24H31NO4/c1-4-7-8-11-16-29-24(28)20-13-10-9-12-19(20)23(27)21-15-14-18(17-22(21)26)25(5-2)6-3/h9-10,12-15,17,26H,4-8,11,16H2,1-3H3

> <InChI Key_QSARr>
FDATWRLUYRHCJE-UHFFFAOYSA-N

> <Salt_Solvent>


> <Salt_Solvent_ID>
0

> <Number of connected components>
1

$$$$
Molecule_904
  Mrv2316 01072400032D          

 11 12  0  0  0  0            999 V2000
    0.8838   -2.1500    0.0000 C   0  0  0  0  0  0  0  0  0  0  0  0
    1.1387   -1.3654    0.0000 C   0  0  0  0  0  0  0  0  0  0  0  0
    0.6538   -0.6979    0.0000 C   0  0  0  0  0  0  0  0  0  0  0  0
    1.1387   -0.0305    0.0000 S   0  0  0  0  0  0  0  0  0  0  0  0
    1.9233   -0.2854    0.0000 C   0  0  0  0  0  0  0  0  0  0  0  0
    2.6378    0.1271    0.0000 C   0  0  0  0  0  0  0  0  0  0  0  0
    2.6378    0.9521    0.0000 Cl  0  0  0  0  0  0  0  0  0  0  0  0
    3.3523   -0.2854    0.0000 C   0  0  0  0  0  0  0  0  0  0  0  0
    3.3523   -1.1104    0.0000 C   0  0  0  0  0  0  0  0  0  0  0  0
    2.6378   -1.5229    0.0000 C   0  0  0  0  0  0  0  0  0  0  0  0
    1.9233   -1.1104    0.0000 C   0  0  0  0  0  0  0  0  0  0  0  0
  1  2  1  0  0  0  0
  3  2  2  0  0  0  0
  4  3  1  0  0  0  0
  5  4  1  0  0  0  0
  5  6  1  0  0  0  0
  6  7  1  0  0  0  0
  6  8  2  0  0  0  0
  8  9  1  0  0  0  0
  9 10  2  0  0  0  0
 10 11  1  0  0  0  0
  2 11  1  0  0  0  0
 11  5  2  0  0  0  0
M  END
> <RowID>
904

> <Original_SMILES>
CC1=CSC2C(Cl)=CC=CC=21

> <Canonical_QSARr>
CC1=CSC2C(Cl)=CC=CC=21

> <InChI_Code_QSARr>
InChI=1S/C9H7ClS/c1-6-5-11-9-7(6)3-2-4-8(9)10/h2-5H,1H3

> <InChI Key_QSARr>
PIURQZBTTSWWOY-UHFFFAOYSA-N

> <Salt_Solvent>


> <Salt_Solvent_ID>
0

> <Number of connected components>
1

$$$$
Molecule_905
  Mrv2316 01072400032D          

  7  6  0  0  0  0            999 V2000
    2.4750   -0.0000    0.0000 C   0  0  0  0  0  0  0  0  0  0  0  0
    2.0625    0.7145    0.0000 O   0  0  0  0  0  0  0  0  0  0  0  0
    1.2375    0.7145    0.0000 C   0  0  0  0  0  0  0  0  0  0  0  0
    0.8250    1.4289    0.0000 C   0  0  0  0  0  0  0  0  0  0  0  0
    0.0000    1.4289    0.0000 Cl  0  0  0  0  0  0  0  0  0  0  0  0
    0.8250   -0.0000    0.0000 O   0  0  0  0  0  0  0  0  0  0  0  0
    0.0000   -0.0000    0.0000 C   0  0  0  0  0  0  0  0  0  0  0  0
  1  2  1  0  0  0  0
  2  3  1  0  0  0  0
  3  4  1  0  0  0  0
  4  5  1  0  0  0  0
  3  6  1  0  0  0  0
  6  7  1  0  0  0  0
M  END
> <RowID>
905

> <Original_SMILES>
COC(CCl)OC

> <Canonical_QSARr>
COC(CCl)OC

> <InChI_Code_QSARr>
InChI=1S/C4H9ClO2/c1-6-4(3-5)7-2/h4H,3H2,1-2H3

> <InChI Key_QSARr>
CRZJPEIBPQWDGJ-UHFFFAOYSA-N

> <Salt_Solvent>


> <Salt_Solvent_ID>
0

> <Number of connected components>
1

$$$$
Molecule_906
  Mrv2316 01072400032D          

 28 28  0  0  0  0            999 V2000
    1.6331    5.3036    0.0000 C   0  0  0  0  0  0  0  0  0  0  0  0
    1.6331    4.4786    0.0000 C   0  0  0  0  0  0  0  0  0  0  0  0
    0.9186    4.0661    0.0000 C   0  0  0  0  0  0  0  0  0  0  0  0
    0.9186    3.2411    0.0000 C   0  0  0  0  0  0  0  0  0  0  0  0
    0.2041    2.8286    0.0000 C   0  0  0  0  0  0  0  0  0  0  0  0
   -0.5103    3.2411    0.0000 S   0  0  0  0  0  0  0  0  0  0  0  0
   -1.2248    2.8286    0.0000 C   0  0  0  0  0  0  0  0  0  0  0  0
   -1.9393    3.2411    0.0000 C   0  0  0  0  0  0  0  0  0  0  0  0
   -2.6537    2.8286    0.0000 C   0  0  0  0  0  0  0  0  0  0  0  0
   -3.3682    3.2411    0.0000 C   0  0  0  0  0  0  0  0  0  0  0  0
   -4.0827    2.8286    0.0000 C   0  0  0  0  0  0  0  0  0  0  0  0
   -4.7972    3.2411    0.0000 C   0  0  0  0  0  0  0  0  0  0  0  0
   -5.5116    2.8286    0.0000 C   0  0  0  0  0  0  0  0  0  0  0  0
   -6.2261    3.2411    0.0000 C   0  0  0  0  0  0  0  0  0  0  0  0
    1.6331    2.8286    0.0000 C   0  0  0  0  0  0  0  0  0  0  0  0
    2.3476    3.2411    0.0000 C   0  0  0  0  0  0  0  0  0  0  0  0
    3.0620    2.8286    0.0000 C   0  0  0  0  0  0  0  0  0  0  0  0
    3.7765    3.2411    0.0000 S   0  0  0  0  0  0  0  0  0  0  0  0
    4.4910    2.8286    0.0000 C   0  0  0  0  0  0  0  0  0  0  0  0
    5.2054    3.2411    0.0000 C   0  0  0  0  0  0  0  0  0  0  0  0
    5.9199    2.8286    0.0000 C   0  0  0  0  0  0  0  0  0  0  0  0
    6.6344    3.2411    0.0000 C   0  0  0  0  0  0  0  0  0  0  0  0
    7.3489    2.8286    0.0000 C   0  0  0  0  0  0  0  0  0  0  0  0
    8.0633    3.2411    0.0000 C   0  0  0  0  0  0  0  0  0  0  0  0
    8.7778    2.8286    0.0000 C   0  0  0  0  0  0  0  0  0  0  0  0
    9.4923    3.2411    0.0000 C   0  0  0  0  0  0  0  0  0  0  0  0
    2.3476    4.0661    0.0000 C   0  0  0  0  0  0  0  0  0  0  0  0
    3.0620    4.4786    0.0000 O   0  0  0  0  0  0  0  0  0  0  0  0
  1  2  1  0  0  0  0
  3  2  2  0  0  0  0
  4  3  1  0  0  0  0
  4  5  1  0  0  0  0
  5  6  1  0  0  0  0
  6  7  1  0  0  0  0
  7  8  1  0  0  0  0
  8  9  1  0  0  0  0
  9 10  1  0  0  0  0
 10 11  1  0  0  0  0
 11 12  1  0  0  0  0
 12 13  1  0  0  0  0
 13 14  1  0  0  0  0
 15  4  2  0  0  0  0
 16 15  1  0  0  0  0
 16 17  1  0  0  0  0
 17 18  1  0  0  0  0
 18 19  1  0  0  0  0
 19 20  1  0  0  0  0
 20 21  1  0  0  0  0
 21 22  1  0  0  0  0
 22 23  1  0  0  0  0
 23 24  1  0  0  0  0
 24 25  1  0  0  0  0
 25 26  1  0  0  0  0
 27 16  2  0  0  0  0
  2 27  1  0  0  0  0
 27 28  1  0  0  0  0
M  END
> <RowID>
906

> <Original_SMILES>
CC1=CC(CSCCCCCCCC)=CC(CSCCCCCCCC)=C1O

> <Canonical_QSARr>
CC1=CC(CSCCCCCCCC)=CC(CSCCCCCCCC)=C1O

> <InChI_Code_QSARr>
InChI=1S/C25H44OS2/c1-4-6-8-10-12-14-16-27-20-23-18-22(3)25(26)24(19-23)21-28-17-15-13-11-9-7-5-2/h18-19,26H,4-17,20-21H2,1-3H3

> <InChI Key_QSARr>
GAODDBNJCKQQDY-UHFFFAOYSA-N

> <Salt_Solvent>


> <Salt_Solvent_ID>
0

> <Number of connected components>
1

$$$$
Molecule_907
  Mrv2316 01072400032D          

 16 17  0  0  0  0            999 V2000
    4.4208   -5.1820    0.0000 O   0  0  0  0  0  0  0  0  0  0  0  0
    4.4208   -4.3570    0.0000 C   0  0  0  0  0  0  0  0  0  0  0  0
    3.7063   -3.9445    0.0000 C   0  0  0  0  0  0  0  0  0  0  0  0
    3.7063   -3.1195    0.0000 C   0  0  0  0  0  0  0  0  0  0  0  0
    2.9918   -2.7070    0.0000 N   0  3  0  0  0  0  0  0  0  0  0  0
    2.9918   -1.8820    0.0000 C   0  0  0  0  0  0  0  0  0  0  0  0
    2.2774   -1.4695    0.0000 C   0  0  0  0  0  0  0  0  0  0  0  0
    2.2774   -0.6445    0.0000 C   0  0  0  0  0  0  0  0  0  0  0  0
    1.5629   -0.2320    0.0000 C   0  0  0  0  0  0  0  0  0  0  0  0
    0.8484   -0.6445    0.0000 C   0  0  0  0  0  0  0  0  0  0  0  0
    0.8484   -1.4695    0.0000 C   0  0  0  0  0  0  0  0  0  0  0  0
    1.5629   -1.8820    0.0000 C   0  0  0  0  0  0  0  0  0  0  0  0
    2.2774   -3.1195    0.0000 C   0  0  0  0  0  0  0  0  0  0  0  0
    2.2774   -3.9445    0.0000 C   0  0  0  0  0  0  0  0  0  0  0  0
    2.9918   -4.3570    0.0000 C   0  0  0  0  0  0  0  0  0  0  0  0
    5.1353   -3.9445    0.0000 O   0  0  0  0  0  0  0  0  0  0  0  0
  1  2  1  0  0  0  0
  2  3  1  0  0  0  0
  4  3  2  0  0  0  0
  5  4  1  0  0  0  0
  5  6  1  0  0  0  0
  6  7  1  0  0  0  0
  8  7  2  0  0  0  0
  9  8  1  0  0  0  0
 10  9  2  0  0  0  0
 11 10  1  0  0  0  0
 12 11  2  0  0  0  0
  7 12  1  0  0  0  0
 13  5  2  0  0  0  0
 14 13  1  0  0  0  0
 15 14  2  0  0  0  0
  3 15  1  0  0  0  0
  2 16  2  0  0  0  0
M  CHG  1   5   1
M  END
> <RowID>
907

> <Original_SMILES>
[HH].[Na+].[Cl-].OC(=O)C1C=CC=[N+](CC2C=CC=CC=2)C=1

> <Canonical_QSARr>
OC(=O)C1C=CC=[N+](CC2C=CC=CC=2)C=1

> <InChI_Code_QSARr>
InChI=1S/C13H11NO2/c15-13(16)12-7-4-8-14(10-12)9-11-5-2-1-3-6-11/h1-8,10H,9H2/p+1

> <InChI Key_QSARr>
AVWFAACIXBQMBF-UHFFFAOYSA-O

> <Salt_Solvent>
[HH].[Na+].[Cl-]

> <Salt_Solvent_ID>
60

> <Number of connected components>
4

$$$$
Molecule_908
  Mrv2316 01072400032D          

 16 16  0  0  0  0            999 V2000
    2.7686   -1.6500    0.0000 C   0  0  0  0  0  0  0  0  0  0  0  0
    2.0541   -1.2375    0.0000 O   0  0  0  0  0  0  0  0  0  0  0  0
    2.0541   -0.4125    0.0000 C   0  0  0  0  0  0  0  0  0  0  0  0
    2.7686   -0.0000    0.0000 O   0  0  0  0  0  0  0  0  0  0  0  0
    1.3396   -0.0000    0.0000 C   0  0  0  0  0  0  0  0  0  0  0  0
    1.3396    0.8250    0.0000 C   0  0  0  0  0  0  0  0  0  0  0  0
    0.6252    1.2375    0.0000 C   0  0  0  0  0  0  0  0  0  0  0  0
    0.6252    2.0625    0.0000 O   0  0  0  0  0  0  0  0  0  0  0  0
   -0.0893    0.8250    0.0000 C   0  0  0  0  0  0  0  0  0  0  0  0
   -0.8038    1.2375    0.0000 C   0  0  0  0  0  0  0  0  0  0  0  0
   -1.5183    0.8250    0.0000 O   0  0  0  0  0  0  0  0  0  0  0  0
   -0.8038    2.0625    0.0000 O   0  0  0  0  0  0  0  0  0  0  0  0
   -1.5183    2.4750    0.0000 C   0  0  0  0  0  0  0  0  0  0  0  0
   -0.0893    0.0000    0.0000 C   0  0  0  0  0  0  0  0  0  0  0  0
    0.6252   -0.4125    0.0000 C   0  0  0  0  0  0  0  0  0  0  0  0
    0.6252   -1.2375    0.0000 O   0  0  0  0  0  0  0  0  0  0  0  0
  1  2  1  0  0  0  0
  2  3  1  0  0  0  0
  3  4  2  0  0  0  0
  3  5  1  0  0  0  0
  6  5  1  0  0  0  0
  7  6  1  0  0  0  0
  7  8  2  0  0  0  0
  9  7  1  0  0  0  0
  9 10  1  0  0  0  0
 10 11  2  0  0  0  0
 10 12  1  0  0  0  0
 12 13  1  0  0  0  0
 14  9  1  0  0  0  0
 15 14  1  0  0  0  0
  5 15  1  0  0  0  0
 15 16  2  0  0  0  0
M  END
> <RowID>
908

> <Original_SMILES>
COC(=O)C1CC(=O)C(CC1=O)C(=O)OC

> <Canonical_QSARr>
COC(=O)C1CC(=O)C(CC1=O)C(=O)OC

> <InChI_Code_QSARr>
InChI=1S/C10H12O6/c1-15-9(13)5-3-8(12)6(4-7(5)11)10(14)16-2/h5-6H,3-4H2,1-2H3

> <InChI Key_QSARr>
MHKKFFHWMKEBDW-UHFFFAOYSA-N

> <Salt_Solvent>


> <Salt_Solvent_ID>
0

> <Number of connected components>
1

$$$$
Molecule_909
  Mrv2316 01072400032D          

 13 13  0  0  0  0            999 V2000
    0.0000   -3.7442    0.0000 C   0  0  0  0  0  0  0  0  0  0  0  0
    0.7145   -3.3317    0.0000 C   0  0  0  0  0  0  0  0  0  0  0  0
    0.7145   -2.5067    0.0000 O   0  0  0  0  0  0  0  0  0  0  0  0
    1.4289   -3.7442    0.0000 C   0  0  0  0  0  0  0  0  0  0  0  0
    2.1434   -3.3317    0.0000 C   0  0  0  0  0  0  0  0  0  0  0  0
    2.1434   -2.5067    0.0000 O   0  0  0  0  0  0  0  0  0  0  0  0
    2.8579   -3.7442    0.0000 N   0  0  0  0  0  0  0  0  0  0  0  0
    3.5724   -3.3317    0.0000 C   0  0  0  0  0  0  0  0  0  0  0  0
    4.2868   -3.7442    0.0000 C   0  0  0  0  0  0  0  0  0  0  0  0
    5.0013   -3.3317    0.0000 C   0  0  0  0  0  0  0  0  0  0  0  0
    5.0013   -2.5067    0.0000 C   0  0  0  0  0  0  0  0  0  0  0  0
    4.2868   -2.0942    0.0000 C   0  0  0  0  0  0  0  0  0  0  0  0
    3.5724   -2.5067    0.0000 C   0  0  0  0  0  0  0  0  0  0  0  0
  1  2  1  0  0  0  0
  2  3  2  0  0  0  0
  2  4  1  0  0  0  0
  4  5  1  0  0  0  0
  5  6  2  0  0  0  0
  5  7  1  0  0  0  0
  7  8  1  0  0  0  0
  9  8  1  0  0  0  0
 10  9  2  0  0  0  0
 11 10  1  0  0  0  0
 12 11  2  0  0  0  0
 13 12  1  0  0  0  0
  8 13  2  0  0  0  0
M  END
> <RowID>
909

> <Original_SMILES>
CC(=O)CC(=O)NC1C=CC=CC=1

> <Canonical_QSARr>
CC(=O)CC(=O)NC1C=CC=CC=1

> <InChI_Code_QSARr>
InChI=1S/C10H11NO2/c1-8(12)7-10(13)11-9-5-3-2-4-6-9/h2-6H,7H2,1H3,(H,11,13)

> <InChI Key_QSARr>
DYRDKSSFIWVSNM-UHFFFAOYSA-N

> <Salt_Solvent>


> <Salt_Solvent_ID>
0

> <Number of connected components>
1

$$$$
Molecule_910
  Mrv2316 01072400032D          

 23 25  0  0  0  0            999 V2000
    0.7854   -4.2319    0.0000 C   0  0  0  0  0  0  0  0  0  0  0  0
    1.2704   -3.5645    0.0000 C   0  0  0  0  0  0  0  0  0  0  0  0
    2.0908   -3.6507    0.0000 C   0  0  0  0  0  0  0  0  0  0  0  0
    2.0908   -2.8257    0.0000 C   0  0  0  0  0  0  0  0  0  0  0  0
    1.3764   -2.4132    0.0000 C   0  0  0  0  0  0  0  0  0  0  0  0
    1.3764   -1.5882    0.0000 C   0  0  0  0  0  0  0  0  0  0  0  0
    0.6619   -1.1757    0.0000 C   0  0  0  0  0  0  0  0  0  0  0  0
    0.6619   -0.3507    0.0000 C   0  0  0  0  0  0  0  0  0  0  0  0
    1.3764    0.0618    0.0000 C   0  0  0  0  0  0  0  0  0  0  0  0
    2.0908   -0.3507    0.0000 C   0  0  0  0  0  0  0  0  0  0  0  0
    2.8053    0.0618    0.0000 C   0  0  0  0  0  0  0  0  0  0  0  0
    3.5198   -0.3507    0.0000 C   0  0  0  0  0  0  0  0  0  0  0  0
    3.5198   -1.1757    0.0000 C   0  0  0  0  0  0  0  0  0  0  0  0
    2.8053   -1.5882    0.0000 C   0  0  0  0  0  0  0  0  0  0  0  0
    2.0908   -1.1757    0.0000 C   0  0  0  0  0  0  0  0  0  0  0  0
    4.2343    0.0618    0.0000 O   0  0  0  0  0  0  0  0  0  0  0  0
    4.2343    0.8868    0.0000 C   0  0  0  0  0  0  0  0  0  0  0  0
    1.9193   -4.4577    0.0000 C   0  0  0  0  0  0  0  0  0  0  0  0
    1.1656   -4.7932    0.0000 O   0  0  0  0  0  0  0  0  0  0  0  0
    2.6338   -4.8702    0.0000 C   0  0  0  0  0  0  0  0  0  0  0  0
    3.2469   -4.3182    0.0000 C   0  0  0  0  0  0  0  0  0  0  0  0
    2.9113   -3.5645    0.0000 C   0  0  0  0  0  0  0  0  0  0  0  0
    3.3238   -2.8500    0.0000 O   0  0  0  0  0  0  0  0  0  0  0  0
  1  2  1  0  0  0  0
  2  3  1  0  0  0  0
  3  4  1  0  0  0  0
  5  4  1  4  0  0  0
  5  6  2  0  0  0  0
  7  6  1  0  0  0  0
  8  7  1  0  0  0  0
  9  8  1  0  0  0  0
 10  9  1  0  0  0  0
 10 11  2  0  0  0  0
 11 12  1  0  0  0  0
 12 13  2  0  0  0  0
 13 14  1  0  0  0  0
 14 15  2  0  0  0  0
  6 15  1  0  0  0  0
 15 10  1  0  0  0  0
 12 16  1  0  0  0  0
 16 17  1  0  0  0  0
 18  3  1  0  0  0  0
 18 19  2  0  0  0  0
 20 18  1  0  0  0  0
 21 20  1  0  0  0  0
 22 21  1  0  0  0  0
  3 22  1  0  0  0  0
 22 23  2  0  0  0  0
M  END
> <RowID>
910

> <Original_SMILES>
CCC1(CC=C2CCCC3=CC(=CC=C32)OC)C(=O)CCC1=O

> <Canonical_QSARr>
CCC1(CC=C2CCCC3=CC(=CC=C32)OC)C(=O)CCC1=O

> <InChI_Code_QSARr>
InChI=1S/C20H24O3/c1-3-20(18(21)9-10-19(20)22)12-11-14-5-4-6-15-13-16(23-2)7-8-17(14)15/h7-8,11,13H,3-6,9-10,12H2,1-2H3

> <InChI Key_QSARr>
OMXFYKCGCDGYNC-UHFFFAOYSA-N

> <Salt_Solvent>


> <Salt_Solvent_ID>
0

> <Number of connected components>
1

$$$$
Molecule_911
  Mrv2316 01072400032D          

  9  9  0  0  0  0            999 V2000
    2.3022   -0.6875    0.0000 C   0  0  0  0  0  0  0  0  0  0  0  0
    1.5877   -0.2750    0.0000 C   0  0  0  0  0  0  0  0  0  0  0  0
    1.5877    0.5500    0.0000 C   0  0  0  0  0  0  0  0  0  0  0  0
    0.8732    0.9625    0.0000 C   0  0  0  0  0  0  0  0  0  0  0  0
    0.8732    1.7875    0.0000 C   0  0  0  0  0  0  0  0  0  0  0  0
    0.1588    0.5500    0.0000 C   0  0  0  0  0  0  0  0  0  0  0  0
   -0.5557    0.9625    0.0000 S   0  0  0  0  0  0  0  0  0  0  0  0
    0.1588   -0.2750    0.0000 C   0  0  0  0  0  0  0  0  0  0  0  0
    0.8732   -0.6875    0.0000 C   0  0  0  0  0  0  0  0  0  0  0  0
  1  2  1  0  0  0  0
  3  2  2  0  0  0  0
  4  3  1  0  0  0  0
  4  5  1  0  0  0  0
  6  4  2  0  0  0  0
  6  7  1  0  0  0  0
  8  6  1  0  0  0  0
  9  8  2  0  0  0  0
  2  9  1  0  0  0  0
M  END
> <RowID>
911

> <Original_SMILES>
CC1=CC(C)=C(S)C=C1

> <Canonical_QSARr>
CC1=CC(C)=C(S)C=C1

> <InChI_Code_QSARr>
InChI=1S/C8H10S/c1-6-3-4-8(9)7(2)5-6/h3-5,9H,1-2H3

> <InChI Key_QSARr>
AMNLXDDJGGTIPL-UHFFFAOYSA-N

> <Salt_Solvent>


> <Salt_Solvent_ID>
0

> <Number of connected components>
1

$$$$
Molecule_912
  Mrv2316 01072400032D          

 58 63  0  0  0  0            999 V2000
  -11.0250   -5.0709    0.0000 O   0  0  0  0  0  0  0  0  0  0  0  0
  -10.3106   -5.4834    0.0000 S   0  0  0  0  0  0  0  0  0  0  0  0
  -10.7231   -6.1979    0.0000 O   0  0  0  0  0  0  0  0  0  0  0  0
   -9.8981   -4.7689    0.0000 O   0  0  0  0  0  0  0  0  0  0  0  0
   -9.5961   -5.8959    0.0000 C   0  0  0  0  0  0  0  0  0  0  0  0
   -8.8816   -5.4834    0.0000 C   0  0  0  0  0  0  0  0  0  0  0  0
   -8.1672   -5.8959    0.0000 C   0  0  0  0  0  0  0  0  0  0  0  0
   -7.4527   -5.4834    0.0000 C   0  0  0  0  0  0  0  0  0  0  0  0
   -6.7382   -5.8959    0.0000 C   0  0  0  0  0  0  0  0  0  0  0  0
   -6.7382   -6.7209    0.0000 C   0  0  0  0  0  0  0  0  0  0  0  0
   -6.0237   -7.1334    0.0000 N   0  0  0  0  0  0  0  0  0  0  0  0
   -6.0237   -7.9584    0.0000 N   0  0  0  0  0  0  0  0  0  0  0  0
   -5.3093   -8.3709    0.0000 C   0  0  0  0  0  0  0  0  0  0  0  0
   -5.3093   -9.1959    0.0000 C   0  0  0  0  0  0  0  0  0  0  0  0
   -4.5948   -9.6084    0.0000 C   0  0  0  0  0  0  0  0  0  0  0  0
   -3.8803   -9.1959    0.0000 C   0  0  0  0  0  0  0  0  0  0  0  0
   -3.1659   -9.6084    0.0000 C   0  0  0  0  0  0  0  0  0  0  0  0
   -3.1659  -10.4334    0.0000 C   0  0  0  0  0  0  0  0  0  0  0  0
   -2.4514  -10.8459    0.0000 C   0  0  0  0  0  0  0  0  0  0  0  0
   -1.7369  -10.4334    0.0000 C   0  0  0  0  0  0  0  0  0  0  0  0
   -1.0224  -10.8459    0.0000 N   0  0  0  0  0  0  0  0  0  0  0  0
   -1.0224  -11.6709    0.0000 N   0  0  0  0  0  0  0  0  0  0  0  0
   -0.3080  -12.0834    0.0000 C   0  0  0  0  0  0  0  0  0  0  0  0
   -0.3080  -12.9084    0.0000 C   0  0  0  0  0  0  0  0  0  0  0  0
   -1.0224  -13.3209    0.0000 S   0  0  0  0  0  0  0  0  0  0  0  0
   -1.7369  -13.7334    0.0000 O   0  0  0  0  0  0  0  0  0  0  0  0
   -0.6099  -14.0354    0.0000 O   0  0  0  0  0  0  0  0  0  0  0  0
   -1.4349  -12.6064    0.0000 O   0  0  0  0  0  0  0  0  0  0  0  0
    0.4065  -13.3209    0.0000 C   0  0  0  0  0  0  0  0  0  0  0  0
    1.1210  -12.9084    0.0000 C   0  0  0  0  0  0  0  0  0  0  0  0
    1.1210  -12.0834    0.0000 C   0  0  0  0  0  0  0  0  0  0  0  0
    1.8354  -11.6709    0.0000 C   0  0  0  0  0  0  0  0  0  0  0  0
    2.5499  -12.0834    0.0000 C   0  0  0  0  0  0  0  0  0  0  0  0
    2.5499  -12.9084    0.0000 C   0  0  0  0  0  0  0  0  0  0  0  0
    1.8354  -13.3209    0.0000 C   0  0  0  0  0  0  0  0  0  0  0  0
    3.2644  -13.3209    0.0000 S   0  0  0  0  0  0  0  0  0  0  0  0
    3.9789  -13.7334    0.0000 O   0  0  0  0  0  0  0  0  0  0  0  0
    2.8519  -14.0354    0.0000 O   0  0  0  0  0  0  0  0  0  0  0  0
    3.6769  -12.6064    0.0000 O   0  0  0  0  0  0  0  0  0  0  0  0
    1.8354  -10.8459    0.0000 N   0  0  0  0  0  0  0  0  0  0  0  0
    0.4065  -11.6709    0.0000 C   0  0  0  0  0  0  0  0  0  0  0  0
    0.4065  -10.8459    0.0000 O   0  0  0  0  0  0  0  0  0  0  0  0
   -1.7369   -9.6084    0.0000 C   0  0  0  0  0  0  0  0  0  0  0  0
   -1.0224   -9.1959    0.0000 O   0  0  0  0  0  0  0  0  0  0  0  0
   -2.4514   -9.1959    0.0000 C   0  0  0  0  0  0  0  0  0  0  0  0
   -3.8803   -8.3709    0.0000 C   0  0  0  0  0  0  0  0  0  0  0  0
   -4.5948   -7.9584    0.0000 C   0  0  0  0  0  0  0  0  0  0  0  0
   -4.5948   -7.1334    0.0000 O   0  0  0  0  0  0  0  0  0  0  0  0
   -7.4527   -7.1334    0.0000 C   0  0  0  0  0  0  0  0  0  0  0  0
   -7.4527   -7.9584    0.0000 O   0  0  0  0  0  0  0  0  0  0  0  0
   -8.1672   -6.7209    0.0000 C   0  0  0  0  0  0  0  0  0  0  0  0
   -8.8816   -7.1334    0.0000 C   0  0  0  0  0  0  0  0  0  0  0  0
   -8.8816   -7.9584    0.0000 N   0  0  0  0  0  0  0  0  0  0  0  0
   -9.5961   -6.7209    0.0000 C   0  0  0  0  0  0  0  0  0  0  0  0
   -6.0237   -5.4834    0.0000 S   0  0  0  0  0  0  0  0  0  0  0  0
   -5.3093   -5.0709    0.0000 O   0  0  0  0  0  0  0  0  0  0  0  0
   -5.6112   -6.1979    0.0000 O   0  0  0  0  0  0  0  0  0  0  0  0
   -6.4362   -4.7689    0.0000 O   0  0  0  0  0  0  0  0  0  0  0  0
  1  2  1  0  0  0  0
  2  3  2  0  0  0  0
  2  4  2  0  0  0  0
  2  5  1  0  0  0  0
  6  5  1  0  0  0  0
  7  6  2  0  0  0  0
  7  8  1  0  0  0  0
  8  9  2  0  0  0  0
  9 10  1  0  0  0  0
 11 10  1  4  0  0  0
 11 12  2  0  0  0  0
 12 13  1  0  0  0  0
 14 13  1  0  0  0  0
 15 14  2  0  0  0  0
 16 15  1  0  0  0  0
 16 17  1  0  0  0  0
 18 17  1  0  0  0  0
 19 18  2  0  0  0  0
 20 19  1  0  0  0  0
 21 20  1  4  0  0  0
 21 22  2  0  0  0  0
 22 23  1  0  0  0  0
 24 23  1  0  0  0  0
 24 25  1  0  0  0  0
 25 26  1  0  0  0  0
 25 27  2  0  0  0  0
 25 28  2  0  0  0  0
 29 24  2  0  0  0  0
 30 29  1  0  0  0  0
 30 31  2  0  0  0  0
 31 32  1  0  0  0  0
 32 33  2  0  0  0  0
 33 34  1  0  0  0  0
 34 35  2  0  0  0  0
 35 30  1  0  0  0  0
 34 36  1  0  0  0  0
 36 37  1  0  0  0  0
 36 38  2  0  0  0  0
 36 39  2  0  0  0  0
 32 40  1  0  0  0  0
 41 31  1  0  0  0  0
 23 41  2  0  0  0  0
 41 42  1  0  0  0  0
 43 20  2  0  0  0  0
 43 44  1  0  0  0  0
 45 43  1  0  0  0  0
 17 45  2  0  0  0  0
 46 16  2  0  0  0  0
 47 46  1  0  0  0  0
 13 47  2  0  0  0  0
 47 48  1  0  0  0  0
 10 49  2  0  0  0  0
 49 50  1  0  0  0  0
 49 51  1  0  0  0  0
 51  7  1  0  0  0  0
 52 51  2  0  0  0  0
 52 53  1  0  0  0  0
 54 52  1  0  0  0  0
  5 54  2  0  0  0  0
  9 55  1  0  0  0  0
 55 56  1  0  0  0  0
 55 57  2  0  0  0  0
 55 58  2  0  0  0  0
M  END
> <RowID>
912

> <Original_SMILES>
[Li+].[Li+].[Na+].[Na+].[Cu+2].[Cu+2].NC1=CC(=CC2=CC(=C(N=NC3=CC=C(C=C3[O-])C3C=C([O-])C(=CC=3)N=NC3=C(C=C4C=C(C=C(N)C4=C3[O-])S([O-])(=O)=O)S([O-])(=O)=O)C([O-])=C12)S([O-])(=O)=O)S([O-])(=O)=O

> <Canonical_QSARr>
NC1C=C(C=C2C=C(C(N=NC3C=CC(=CC=3O)C3=CC(O)=C(C=C3)N=NC3C(=CC4C=C(C=C(N)C=4C=3O)S(O)(=O)=O)S(O)(=O)=O)=C(O)C=12)S(O)(=O)=O)S(O)(=O)=O

> <InChI_Code_QSARr>
InChI=1S/C32H24N6O16S4/c33-19-11-17(55(43,44)45)5-15-9-25(57(49,50)51)29(31(41)27(15)19)37-35-21-3-1-13(7-23(21)39)14-2-4-22(24(40)8-14)36-38-30-26(58(52,53)54)10-16-6-18(56(46,47)48)12-20(34)28(16)32(30)42/h1-12,39-42H,33-34H2,(H,43,44,45)(H,46,47,48)(H,49,50,51)(H,52,53,54)

> <InChI Key_QSARr>
LPDRYPCBCLBTNR-UHFFFAOYSA-N

> <Salt_Solvent>
[Li+].[Na+].[Cu+2]

> <Salt_Solvent_ID>
70

> <Number of connected components>
7

$$$$
Molecule_913
  Mrv2316 01072400032D          

 18 18  0  0  0  0            999 V2000
    2.3284    0.2592    0.0000 F   0  0  0  0  0  0  0  0  0  0  0  0
    1.5747    0.5947    0.0000 C   0  0  0  0  0  0  0  0  0  0  0  0
    1.9102    1.3484    0.0000 F   0  0  0  0  0  0  0  0  0  0  0  0
    1.2391   -0.1589    0.0000 F   0  0  0  0  0  0  0  0  0  0  0  0
    0.8210    0.9303    0.0000 C   0  0  0  0  0  0  0  0  0  0  0  0
    1.2335    1.6448    0.0000 F   0  0  0  0  0  0  0  0  0  0  0  0
    0.1536    1.4152    0.0000 C   0  0  0  0  0  0  0  0  0  0  0  0
    0.7056    2.0283    0.0000 F   0  0  0  0  0  0  0  0  0  0  0  0
   -0.3985    2.0283    0.0000 F   0  0  0  0  0  0  0  0  0  0  0  0
   -0.5139    0.9303    0.0000 C   0  0  0  0  0  0  0  0  0  0  0  0
   -0.9264    1.6448    0.0000 F   0  0  0  0  0  0  0  0  0  0  0  0
   -1.2675    0.5947    0.0000 F   0  0  0  0  0  0  0  0  0  0  0  0
   -0.2589    0.1457    0.0000 C   0  0  0  0  0  0  0  0  0  0  0  0
   -1.0659   -0.0259    0.0000 F   0  0  0  0  0  0  0  0  0  0  0  0
   -0.1727   -0.6748    0.0000 F   0  0  0  0  0  0  0  0  0  0  0  0
    0.5661    0.1457    0.0000 C   0  0  0  0  0  0  0  0  0  0  0  0
    0.6609   -0.6739    0.0000 F   0  0  0  0  0  0  0  0  0  0  0  0
    0.9711   -0.5731    0.0000 F   0  0  0  0  0  0  0  0  0  0  0  0
  1  2  1  0  0  0  0
  2  3  1  0  0  0  0
  2  4  1  0  0  0  0
  2  5  1  0  0  0  0
  5  6  1  0  0  0  0
  7  5  1  0  0  0  0
  7  8  1  0  0  0  0
  7  9  1  0  0  0  0
 10  7  1  0  0  0  0
 10 11  1  0  0  0  0
 10 12  1  0  0  0  0
 13 10  1  0  0  0  0
 13 14  1  0  0  0  0
 13 15  1  0  0  0  0
 16 13  1  0  0  0  0
  5 16  1  0  0  0  0
 16 17  1  0  0  0  0
 16 18  1  0  0  0  0
M  END
> <RowID>
913

> <Original_SMILES>
FC(F)(F)C1(F)C(F)(F)C(F)(F)C(F)(F)C1(F)F

> <Canonical_QSARr>
FC(F)(F)C1(F)C(F)(F)C(F)(F)C(F)(F)C1(F)F

> <InChI_Code_QSARr>
InChI=1S/C6F12/c7-1(6(16,17)18)2(8,9)4(12,13)5(14,15)3(1,10)11

> <InChI Key_QSARr>
BCNXQFASJTYKDJ-UHFFFAOYSA-N

> <Salt_Solvent>


> <Salt_Solvent_ID>
0

> <Number of connected components>
1

$$$$
Molecule_915
  Mrv2316 01072400032D          

  6  5  0  0  0  0            999 V2000
    0.1105   -1.2375    0.0000 F   0  0  0  0  0  0  0  0  0  0  0  0
    0.8250   -0.8250    0.0000 C   0  0  0  0  0  0  0  0  0  0  0  0
    0.8250   -0.0000    0.0000 C   0  0  0  0  0  0  0  0  0  0  0  0
    0.8250    0.8250    0.0000 F   0  0  0  0  0  0  0  0  0  0  0  0
    1.6500   -0.0000    0.0000 F   0  0  0  0  0  0  0  0  0  0  0  0
   -0.0000   -0.0000    0.0000 F   0  0  0  0  0  0  0  0  0  0  0  0
  1  2  1  0  0  0  0
  2  3  1  0  0  0  0
  3  4  1  0  0  0  0
  3  5  1  0  0  0  0
  3  6  1  0  0  0  0
M  END
> <RowID>
915

> <Original_SMILES>
FCC(F)(F)F

> <Canonical_QSARr>
FCC(F)(F)F

> <InChI_Code_QSARr>
InChI=1S/C2H2F4/c3-1-2(4,5)6/h1H2

> <InChI Key_QSARr>
LVGUZGTVOIAKKC-UHFFFAOYSA-N

> <Salt_Solvent>


> <Salt_Solvent_ID>
0

> <Number of connected components>
1

$$$$
Molecule_917
  Mrv2316 01072400032D          

 10  9  0  0  0  0            999 V2000
   -2.3349    1.1270    0.0000 C   0  0  0  0  0  0  0  0  0  0  0  0
   -1.6204    0.7145    0.0000 C   0  0  0  0  0  0  0  0  0  0  0  0
   -0.9059    1.1270    0.0000 C   0  0  0  0  0  0  0  0  0  0  0  0
   -0.1915    0.7145    0.0000 C   0  0  0  0  0  0  0  0  0  0  0  0
    0.5230    1.1270    0.0000 C   0  0  0  0  0  0  0  0  0  0  0  0
    1.2375    0.7145    0.0000 C   0  0  0  0  0  0  0  0  0  0  0  0
    1.9520    1.1270    0.0000 O   0  0  0  0  0  0  0  0  0  0  0  0
    2.6664    0.7145    0.0000 C   0  0  0  0  0  0  0  0  0  0  0  0
    3.3809    1.1270    0.0000 C   0  0  0  0  0  0  0  0  0  0  0  0
    2.6664   -0.1105    0.0000 O   0  0  0  0  0  0  0  0  0  0  0  0
  1  2  1  0  0  0  0
  3  2  1  4  0  0  0
  3  4  2  0  0  0  0
  4  5  1  0  0  0  0
  5  6  1  0  0  0  0
  6  7  1  0  0  0  0
  7  8  1  0  0  0  0
  8  9  1  0  0  0  0
  8 10  2  0  0  0  0
M  END
> <RowID>
917

> <Original_SMILES>
CCC=CCCOC(C)=O

> <Canonical_QSARr>
CCC=CCCOC(C)=O

> <InChI_Code_QSARr>
InChI=1S/C8H14O2/c1-3-4-5-6-7-10-8(2)9/h4-5H,3,6-7H2,1-2H3

> <InChI Key_QSARr>
NPFVOOAXDOBMCE-UHFFFAOYSA-N

> <Salt_Solvent>


> <Salt_Solvent_ID>
0

> <Number of connected components>
1

$$$$
Molecule_918
  Mrv2316 01072400032D          

 20 20  0  0  0  0            999 V2000
    2.1434   -5.9400    0.0000 C   0  0  0  0  0  0  0  0  0  0  0  0
    2.8579   -6.3525    0.0000 C   0  0  0  0  0  0  0  0  0  0  0  0
    3.5724   -5.9400    0.0000 C   0  0  0  0  0  0  0  0  0  0  0  0
    4.2868   -6.3525    0.0000 C   0  0  0  0  0  0  0  0  0  0  0  0
    5.0013   -5.9400    0.0000 C   0  0  0  0  0  0  0  0  0  0  0  0
    5.7158   -6.3525    0.0000 C   0  0  0  0  0  0  0  0  0  0  0  0
    6.4302   -5.9400    0.0000 O   0  0  0  0  0  0  0  0  0  0  0  0
    7.1447   -6.3525    0.0000 C   0  0  0  0  0  0  0  0  0  0  0  0
    7.1447   -7.1775    0.0000 O   0  0  0  0  0  0  0  0  0  0  0  0
    7.8592   -5.9400    0.0000 C   0  0  0  0  0  0  0  0  0  0  0  0
    8.5737   -6.3525    0.0000 C   0  0  0  0  0  0  0  0  0  0  0  0
    9.2881   -5.9400    0.0000 C   0  0  0  0  0  0  0  0  0  0  0  0
    9.2881   -5.1150    0.0000 C   0  0  0  0  0  0  0  0  0  0  0  0
   10.0026   -4.7025    0.0000 N   0  3  0  0  0  0  0  0  0  0  0  0
   10.0026   -3.8775    0.0000 O   0  5  0  0  0  0  0  0  0  0  0  0
   10.7171   -5.1150    0.0000 O   0  0  0  0  0  0  0  0  0  0  0  0
    8.5737   -4.7025    0.0000 C   0  0  0  0  0  0  0  0  0  0  0  0
    7.8592   -5.1150    0.0000 C   0  0  0  0  0  0  0  0  0  0  0  0
    5.0013   -5.1150    0.0000 C   0  0  0  0  0  0  0  0  0  0  0  0
    5.7158   -4.7025    0.0000 C   0  0  0  0  0  0  0  0  0  0  0  0
  1  2  1  0  0  0  0
  2  3  1  0  0  0  0
  3  4  1  0  0  0  0
  4  5  1  0  0  0  0
  5  6  1  0  0  0  0
  6  7  1  0  0  0  0
  7  8  1  0  0  0  0
  8  9  2  0  0  0  0
  8 10  1  0  0  0  0
 11 10  2  0  0  0  0
 12 11  1  0  0  0  0
 13 12  2  0  0  0  0
 13 14  1  0  0  0  0
 14 15  1  0  0  0  0
 14 16  2  0  0  0  0
 17 13  1  0  0  0  0
 18 17  2  0  0  0  0
 10 18  1  0  0  0  0
  5 19  1  0  0  0  0
 19 20  1  0  0  0  0
M  CHG  2  14   1  15  -1
M  END
> <RowID>
918

> <Original_SMILES>
CCCCC(COC(=O)C1=CC=C(C=C1)[N+]([O-])=O)CC

> <Canonical_QSARr>
CCCCC(COC(=O)C1=CC=C(C=C1)[N+]([O-])=O)CC

> <InChI_Code_QSARr>
InChI=1S/C15H21NO4/c1-3-5-6-12(4-2)11-20-15(17)13-7-9-14(10-8-13)16(18)19/h7-10,12H,3-6,11H2,1-2H3

> <InChI Key_QSARr>
NPSJHQMIVNJLNN-UHFFFAOYSA-N

> <Salt_Solvent>


> <Salt_Solvent_ID>
0

> <Number of connected components>
1

$$$$
Molecule_920
  Mrv2316 01072400032D          

 25 29  0  0  0  0            999 V2000
    5.9120   -0.6559    0.0000 C   0  0  0  0  0  0  0  0  0  0  0  0
    6.2168   -1.4225    0.0000 C   0  0  0  0  0  0  0  0  0  0  0  0
    6.5825   -0.6830    0.0000 C   0  0  0  0  0  0  0  0  0  0  0  0
    7.4058   -0.6300    0.0000 C   0  0  0  0  0  0  0  0  0  0  0  0
    7.8634   -1.3165    0.0000 C   0  0  0  0  0  0  0  0  0  0  0  0
    7.4977   -2.0560    0.0000 C   0  0  0  0  0  0  0  0  0  0  0  0
    7.9552   -2.7425    0.0000 C   0  0  0  0  0  0  0  0  0  0  0  0
    8.7785   -2.6894    0.0000 C   0  0  0  0  0  0  0  0  0  0  0  0
    9.1443   -1.9499    0.0000 C   0  0  0  0  0  0  0  0  0  0  0  0
    9.9675   -1.8969    0.0000 C   0  0  0  0  0  0  0  0  0  0  0  0
   10.3333   -1.1574    0.0000 C   0  0  0  0  0  0  0  0  0  0  0  0
   11.1566   -1.1044    0.0000 O   0  0  0  0  0  0  0  0  0  0  0  0
    9.8757   -0.4709    0.0000 C   0  0  0  0  0  0  0  0  0  0  0  0
    9.0524   -0.5240    0.0000 C   0  0  0  0  0  0  0  0  0  0  0  0
    8.6867   -1.2635    0.0000 C   0  0  0  0  0  0  0  0  0  0  0  0
    8.2291   -0.5770    0.0000 C   0  0  0  0  0  0  0  0  0  0  0  0
    6.6744   -2.1090    0.0000 C   0  0  0  0  0  0  0  0  0  0  0  0
    6.1629   -2.7563    0.0000 C   0  0  0  0  0  0  0  0  0  0  0  0
    5.3892   -2.4699    0.0000 C   0  0  0  0  0  0  0  0  0  0  0  0
    5.4225   -1.6455    0.0000 C   0  0  0  0  0  0  0  0  0  0  0  0
    5.4559   -0.8212    0.0000 C   0  0  0  0  0  0  0  0  0  0  0  0
    4.6822   -0.5348    0.0000 C   0  0  0  0  0  0  0  0  0  0  0  0
    4.1707   -1.1821    0.0000 C   0  0  0  0  0  0  0  0  0  0  0  0
    3.3464   -1.1488    0.0000 O   0  0  0  0  0  0  0  0  0  0  0  0
    4.6282   -1.8686    0.0000 O   0  0  0  0  0  0  0  0  0  0  0  0
  1  2  1  0  0  0  0
  3  2  1  0  0  0  0
  4  3  1  0  0  0  0
  5  4  1  0  0  0  0
  5  6  1  0  0  0  0
  6  7  1  0  0  0  0
  7  8  1  0  0  0  0
  8  9  1  0  0  0  0
 10  9  2  0  0  0  0
 11 10  1  0  0  0  0
 11 12  2  0  0  0  0
 13 11  1  0  0  0  0
 14 13  1  0  0  0  0
 15 14  1  0  0  0  0
  9 15  1  0  0  0  0
 15  5  1  0  0  0  0
 15 16  1  0  0  0  0
 17  6  1  0  0  0  0
 17  2  1  0  0  0  0
 18 17  1  0  0  0  0
 19 18  1  0  0  0  0
 20 19  1  0  0  0  0
  2 20  1  0  0  0  0
 21 20  1  0  0  0  0
 22 21  1  0  0  0  0
 23 22  1  0  0  0  0
 23 24  2  0  0  0  0
 25 23  1  0  0  0  0
 20 25  1  0  0  0  0
M  END
> <RowID>
920

> <Original_SMILES>
CC12CCC3C(CCC4=CC(=O)CCC43C)C1CCC12CCC(=O)O1

> <Canonical_QSARr>
CC12CCC3C(CCC4=CC(=O)CCC43C)C1CCC12CCC(=O)O1

> <InChI_Code_QSARr>
InChI=1S/C22H30O3/c1-20-9-5-15(23)13-14(20)3-4-16-17(20)6-10-21(2)18(16)7-11-22(21)12-8-19(24)25-22/h13,16-18H,3-12H2,1-2H3

> <InChI Key_QSARr>
UWBICEKKOYXZRG-UHFFFAOYSA-N

> <Salt_Solvent>


> <Salt_Solvent_ID>
0

> <Number of connected components>
1

$$$$
Molecule_921
  Mrv2316 01072400032D          

 25 28  0  0  0  0            999 V2000
    1.0822   -1.2375    0.0000 C   0  0  0  0  0  0  0  0  0  0  0  0
    0.2572   -1.2375    0.0000 C   0  0  0  0  0  0  0  0  0  0  0  0
   -0.5678   -1.2375    0.0000 C   0  0  0  0  0  0  0  0  0  0  0  0
    0.2572   -2.0625    0.0000 C   0  0  0  0  0  0  0  0  0  0  0  0
   -0.4573   -2.4750    0.0000 C   0  0  0  0  0  0  0  0  0  0  0  0
   -0.4573   -3.3000    0.0000 C   0  0  0  0  0  0  0  0  0  0  0  0
    0.2572   -3.7125    0.0000 C   0  0  0  0  0  0  0  0  0  0  0  0
    0.2572   -4.5375    0.0000 O   0  0  0  0  0  0  0  0  0  0  0  0
    0.9717   -4.9500    0.0000 C   0  0  0  0  0  0  0  0  0  0  0  0
    0.9717   -5.7750    0.0000 C   0  0  0  0  0  0  0  0  0  0  0  0
    0.5592   -6.4895    0.0000 C   0  0  0  0  0  0  0  0  0  0  0  0
    1.3842   -6.4895    0.0000 O   0  0  0  0  0  0  0  0  0  0  0  0
    0.9717   -3.3000    0.0000 C   0  0  0  0  0  0  0  0  0  0  0  0
    0.9717   -2.4750    0.0000 C   0  0  0  0  0  0  0  0  0  0  0  0
    0.2572   -0.4125    0.0000 C   0  0  0  0  0  0  0  0  0  0  0  0
    0.9717    0.0000    0.0000 C   0  0  0  0  0  0  0  0  0  0  0  0
    0.9717    0.8250    0.0000 C   0  0  0  0  0  0  0  0  0  0  0  0
    0.2572    1.2375    0.0000 C   0  0  0  0  0  0  0  0  0  0  0  0
    0.2572    2.0625    0.0000 O   0  0  0  0  0  0  0  0  0  0  0  0
    0.9717    2.4750    0.0000 C   0  0  0  0  0  0  0  0  0  0  0  0
    0.9717    3.3000    0.0000 C   0  0  0  0  0  0  0  0  0  0  0  0
    1.3842    4.0145    0.0000 C   0  0  0  0  0  0  0  0  0  0  0  0
    0.5592    4.0145    0.0000 O   0  0  0  0  0  0  0  0  0  0  0  0
   -0.4573    0.8250    0.0000 C   0  0  0  0  0  0  0  0  0  0  0  0
   -0.4573    0.0000    0.0000 C   0  0  0  0  0  0  0  0  0  0  0  0
  1  2  1  0  0  0  0
  2  3  1  0  0  0  0
  2  4  1  0  0  0  0
  5  4  1  0  0  0  0
  6  5  2  0  0  0  0
  7  6  1  0  0  0  0
  7  8  1  0  0  0  0
  8  9  1  0  0  0  0
  9 10  1  0  0  0  0
 11 10  1  0  0  0  0
 12 11  1  0  0  0  0
 10 12  1  0  0  0  0
 13  7  2  0  0  0  0
 14 13  1  0  0  0  0
  4 14  2  0  0  0  0
  2 15  1  0  0  0  0
 16 15  1  0  0  0  0
 17 16  2  0  0  0  0
 18 17  1  0  0  0  0
 18 19  1  0  0  0  0
 19 20  1  0  0  0  0
 20 21  1  0  0  0  0
 22 21  1  0  0  0  0
 23 22  1  0  0  0  0
 21 23  1  0  0  0  0
 24 18  2  0  0  0  0
 25 24  1  0  0  0  0
 15 25  2  0  0  0  0
M  END
> <RowID>
921

> <Original_SMILES>
CC(C)(C1C=CC(=CC=1)OCC1CO1)C1C=CC(=CC=1)OCC1CO1

> <Canonical_QSARr>
CC(C)(C1C=CC(=CC=1)OCC1CO1)C1C=CC(=CC=1)OCC1CO1

> <InChI_Code_QSARr>
InChI=1S/C21H24O4/c1-21(2,15-3-7-17(8-4-15)22-11-19-13-24-19)16-5-9-18(10-6-16)23-12-20-14-25-20/h3-10,19-20H,11-14H2,1-2H3

> <InChI Key_QSARr>
LCFVJGUPQDGYKZ-UHFFFAOYSA-N

> <Salt_Solvent>


> <Salt_Solvent_ID>
0

> <Number of connected components>
1

$$$$
Molecule_922
  Mrv2316 01072400032D          

 15 14  0  0  0  0            999 V2000
    6.7105    4.6993    0.0000 C   0  0  0  0  0  0  0  0  0  0  0  0
    7.4250    4.2868    0.0000 C   0  0  0  0  0  0  0  0  0  0  0  0
    8.1395    4.6993    0.0000 C   0  0  0  0  0  0  0  0  0  0  0  0
    8.8539    4.2868    0.0000 C   0  0  0  0  0  0  0  0  0  0  0  0
    9.5684    4.6993    0.0000 C   0  0  0  0  0  0  0  0  0  0  0  0
   10.2829    4.2868    0.0000 C   0  0  0  0  0  0  0  0  0  0  0  0
   10.9974    4.6993    0.0000 C   0  0  0  0  0  0  0  0  0  0  0  0
   11.7118    4.2868    0.0000 C   0  0  0  0  0  0  0  0  0  0  0  0
   12.4263    4.6993    0.0000 C   0  0  0  0  0  0  0  0  0  0  0  0
   13.1408    4.2868    0.0000 C   0  0  0  0  0  0  0  0  0  0  0  0
   13.8552    4.6993    0.0000 C   0  0  0  0  0  0  0  0  0  0  0  0
   14.5697    4.2868    0.0000 C   0  0  0  0  0  0  0  0  0  0  0  0
   15.2842    4.6993    0.0000 O   0  0  0  0  0  0  0  0  0  0  0  0
   15.9987    4.2868    0.0000 C   0  0  0  0  0  0  0  0  0  0  0  0
   16.7131    4.6993    0.0000 C   0  0  0  0  0  0  0  0  0  0  0  0
  1  2  1  0  0  0  0
  2  3  1  0  0  0  0
  3  4  1  0  0  0  0
  4  5  1  0  0  0  0
  5  6  1  0  0  0  0
  6  7  1  0  0  0  0
  7  8  1  0  0  0  0
  8  9  1  0  0  0  0
  9 10  1  0  0  0  0
 10 11  1  0  0  0  0
 11 12  1  0  0  0  0
 12 13  1  0  0  0  0
 13 14  1  0  0  0  0
 14 15  2  0  0  0  0
M  END
> <RowID>
922

> <Original_SMILES>
CCCCCCCCCCCCOC=C

> <Canonical_QSARr>
CCCCCCCCCCCCOC=C

> <InChI_Code_QSARr>
InChI=1S/C14H28O/c1-3-5-6-7-8-9-10-11-12-13-14-15-4-2/h4H,2-3,5-14H2,1H3

> <InChI Key_QSARr>
LAYAKLSFVAPMEL-UHFFFAOYSA-N

> <Salt_Solvent>


> <Salt_Solvent_ID>
0

> <Number of connected components>
1

$$$$
Molecule_923
  Mrv2316 01072400032D          

 15 16  0  0  0  0            999 V2000
    1.5395   -1.2375    0.0000 O   0  0  0  0  0  0  0  0  0  0  0  0
    0.7145   -1.2375    0.0000 S   0  0  0  0  0  0  0  0  0  0  0  0
   -0.1105   -1.2375    0.0000 O   0  0  0  0  0  0  0  0  0  0  0  0
    0.7145   -2.0625    0.0000 C   0  0  0  0  0  0  0  0  0  0  0  0
    0.0000   -2.4750    0.0000 C   0  0  0  0  0  0  0  0  0  0  0  0
    0.0000   -3.3000    0.0000 C   0  0  0  0  0  0  0  0  0  0  0  0
    0.7145   -3.7125    0.0000 C   0  0  0  0  0  0  0  0  0  0  0  0
    1.4289   -3.3000    0.0000 C   0  0  0  0  0  0  0  0  0  0  0  0
    1.4289   -2.4750    0.0000 C   0  0  0  0  0  0  0  0  0  0  0  0
    0.7145   -0.4125    0.0000 C   0  0  0  0  0  0  0  0  0  0  0  0
    1.4289    0.0000    0.0000 C   0  0  0  0  0  0  0  0  0  0  0  0
    1.4289    0.8250    0.0000 C   0  0  0  0  0  0  0  0  0  0  0  0
    0.7145    1.2375    0.0000 C   0  0  0  0  0  0  0  0  0  0  0  0
    0.0000    0.8250    0.0000 C   0  0  0  0  0  0  0  0  0  0  0  0
    0.0000    0.0000    0.0000 C   0  0  0  0  0  0  0  0  0  0  0  0
  1  2  2  0  0  0  0
  2  3  2  0  0  0  0
  2  4  1  0  0  0  0
  5  4  1  0  0  0  0
  6  5  2  0  0  0  0
  7  6  1  0  0  0  0
  8  7  2  0  0  0  0
  9  8  1  0  0  0  0
  4  9  2  0  0  0  0
  2 10  1  0  0  0  0
 11 10  1  0  0  0  0
 12 11  2  0  0  0  0
 13 12  1  0  0  0  0
 14 13  2  0  0  0  0
 15 14  1  0  0  0  0
 10 15  2  0  0  0  0
M  END
> <RowID>
923

> <Original_SMILES>
O=S(=O)(C1C=CC=CC=1)C1C=CC=CC=1

> <Canonical_QSARr>
O=S(=O)(C1C=CC=CC=1)C1C=CC=CC=1

> <InChI_Code_QSARr>
InChI=1S/C12H10O2S/c13-15(14,11-7-3-1-4-8-11)12-9-5-2-6-10-12/h1-10H

> <InChI Key_QSARr>
KZTYYGOKRVBIMI-UHFFFAOYSA-N

> <Salt_Solvent>


> <Salt_Solvent_ID>
0

> <Number of connected components>
1

$$$$
Molecule_924
  Mrv2316 01072400032D          

 20 19  0  0  0  0            999 V2000
    5.3328   -2.5854    0.0000 O   0  0  0  0  0  0  0  0  0  0  0  0
    4.5226   -2.7413    0.0000 C   0  0  0  0  0  0  0  0  0  0  0  0
    4.2526   -3.5209    0.0000 O   0  0  0  0  0  0  0  0  0  0  0  0
    3.9825   -2.1177    0.0000 C   0  0  0  0  0  0  0  0  0  0  0  0
    4.2526   -1.3381    0.0000 N   0  0  0  0  0  0  0  0  0  0  0  0
    3.7125   -0.7145    0.0000 C   0  0  0  0  0  0  0  0  0  0  0  0
    2.9024   -0.8704    0.0000 C   0  0  0  0  0  0  0  0  0  0  0  0
    2.6323   -1.6499    0.0000 O   0  0  0  0  0  0  0  0  0  0  0  0
    2.3623   -0.2467    0.0000 O   0  0  0  0  0  0  0  0  0  0  0  0
    5.0627   -1.1822    0.0000 C   0  0  0  0  0  0  0  0  0  0  0  0
    5.3328   -0.4027    0.0000 C   0  0  0  0  0  0  0  0  0  0  0  0
    6.1429   -0.2467    0.0000 N   0  0  0  0  0  0  0  0  0  0  0  0
    6.4129    0.5328    0.0000 C   0  0  0  0  0  0  0  0  0  0  0  0
    5.8729    1.1564    0.0000 C   0  0  0  0  0  0  0  0  0  0  0  0
    6.1429    1.9360    0.0000 O   0  0  0  0  0  0  0  0  0  0  0  0
    5.0627    1.0005    0.0000 O   0  0  0  0  0  0  0  0  0  0  0  0
    6.6830   -0.8704    0.0000 C   0  0  0  0  0  0  0  0  0  0  0  0
    7.4931   -0.7145    0.0000 C   0  0  0  0  0  0  0  0  0  0  0  0
    7.7632    0.0651    0.0000 O   0  0  0  0  0  0  0  0  0  0  0  0
    8.0332   -1.3381    0.0000 O   0  0  0  0  0  0  0  0  0  0  0  0
  1  2  1  0  0  0  0
  2  3  2  0  0  0  0
  2  4  1  0  0  0  0
  4  5  1  0  0  0  0
  5  6  1  0  0  0  0
  6  7  1  0  0  0  0
  7  8  1  0  0  0  0
  7  9  2  0  0  0  0
  5 10  1  0  0  0  0
 10 11  1  0  0  0  0
 11 12  1  0  0  0  0
 12 13  1  0  0  0  0
 13 14  1  0  0  0  0
 14 15  1  0  0  0  0
 14 16  2  0  0  0  0
 12 17  1  0  0  0  0
 17 18  1  0  0  0  0
 18 19  1  0  0  0  0
 18 20  2  0  0  0  0
M  END
> <RowID>
924

> <Original_SMILES>
[Na+].[Na+].[Mn+2].[O-]C(=O)CN(CC([O-])=O)CCN(CC([O-])=O)CC([O-])=O

> <Canonical_QSARr>
OC(=O)CN(CC(O)=O)CCN(CC(O)=O)CC(O)=O

> <InChI_Code_QSARr>
InChI=1S/C10H16N2O8/c13-7(14)3-11(4-8(15)16)1-2-12(5-9(17)18)6-10(19)20/h1-6H2,(H,13,14)(H,15,16)(H,17,18)(H,19,20)

> <InChI Key_QSARr>
KCXVZYZYPLLWCC-UHFFFAOYSA-N

> <Salt_Solvent>
[Na+].[Mn+2]

> <Salt_Solvent_ID>
180

> <Number of connected components>
4

$$$$
Molecule_925
  Mrv2316 01072400032D          

  9  9  0  0  0  0            999 V2000
   -0.6351    2.1083    0.0000 C   0  0  0  0  0  0  0  0  0  0  0  0
   -0.6351    1.2833    0.0000 O   0  0  0  0  0  0  0  0  0  0  0  0
    0.0794    0.8708    0.0000 C   0  0  0  0  0  0  0  0  0  0  0  0
    0.0794    0.0458    0.0000 C   0  0  0  0  0  0  0  0  0  0  0  0
    0.7939   -0.3667    0.0000 C   0  0  0  0  0  0  0  0  0  0  0  0
    1.5083    0.0458    0.0000 C   0  0  0  0  0  0  0  0  0  0  0  0
    1.5083    0.8708    0.0000 C   0  0  0  0  0  0  0  0  0  0  0  0
    0.7939    1.2833    0.0000 C   0  0  0  0  0  0  0  0  0  0  0  0
    0.7939    2.1083    0.0000 N   0  0  0  0  0  0  0  0  0  0  0  0
  1  2  1  0  0  0  0
  2  3  1  0  0  0  0
  4  3  2  0  0  0  0
  5  4  1  0  0  0  0
  6  5  2  0  0  0  0
  7  6  1  0  0  0  0
  8  7  2  0  0  0  0
  3  8  1  0  0  0  0
  8  9  1  0  0  0  0
M  END
> <RowID>
925

> <Original_SMILES>
COC1=CC=CC=C1N

> <Canonical_QSARr>
COC1=CC=CC=C1N

> <InChI_Code_QSARr>
InChI=1S/C7H9NO/c1-9-7-5-3-2-4-6(7)8/h2-5H,8H2,1H3

> <InChI Key_QSARr>
VMPITZXILSNTON-UHFFFAOYSA-N

> <Salt_Solvent>


> <Salt_Solvent_ID>
0

> <Number of connected components>
1

$$$$
Molecule_927
  Mrv2316 01072400032D          

  6  5  0  0  0  0            999 V2000
    2.4750   -1.4289    0.0000 C   0  0  0  0  0  0  0  0  0  0  0  0
    2.0625   -0.7145    0.0000 C   0  0  0  0  0  0  0  0  0  0  0  0
    2.4750   -0.0000    0.0000 C   0  0  0  0  0  0  0  0  0  0  0  0
    1.2375   -0.7145    0.0000 C   0  0  0  0  0  0  0  0  0  0  0  0
    0.8250   -0.0000    0.0000 C   0  0  0  0  0  0  0  0  0  0  0  0
    0.0000   -0.0000    0.0000 C   0  0  0  0  0  0  0  0  0  0  0  0
  1  2  1  0  0  0  0
  2  3  1  0  0  0  0
  2  4  1  0  0  0  0
  4  5  1  0  0  0  0
  5  6  2  0  0  0  0
M  END
> <RowID>
927

> <Original_SMILES>
CC(C)CC=C

> <Canonical_QSARr>
CC(C)CC=C

> <InChI_Code_QSARr>
InChI=1S/C6H12/c1-4-5-6(2)3/h4,6H,1,5H2,2-3H3

> <InChI Key_QSARr>
WSSSPWUEQFSQQG-UHFFFAOYSA-N

> <Salt_Solvent>


> <Salt_Solvent_ID>
0

> <Number of connected components>
1

$$$$
Molecule_928
  Mrv2316 01072400032D          

 22 23  0  0  0  0            999 V2000
    3.7672    0.8250    0.0000 C   0  0  0  0  0  0  0  0  0  0  0  0
    3.7672   -0.0000    0.0000 C   0  0  0  0  0  0  0  0  0  0  0  0
    4.4817   -0.4125    0.0000 C   0  0  0  0  0  0  0  0  0  0  0  0
    3.0527   -0.4125    0.0000 C   0  0  0  0  0  0  0  0  0  0  0  0
    2.3383   -0.0000    0.0000 C   0  0  0  0  0  0  0  0  0  0  0  0
    2.3383    0.8250    0.0000 C   0  0  0  0  0  0  0  0  0  0  0  0
    1.6238    1.2375    0.0000 C   0  0  0  0  0  0  0  0  0  0  0  0
    1.6238    2.0625    0.0000 C   0  0  0  0  0  0  0  0  0  0  0  0
    0.9093    0.8250    0.0000 C   0  0  0  0  0  0  0  0  0  0  0  0
    0.9093    0.0000    0.0000 C   0  0  0  0  0  0  0  0  0  0  0  0
    0.1949   -0.4125    0.0000 C   0  0  0  0  0  0  0  0  0  0  0  0
    1.6238   -0.4125    0.0000 C   0  0  0  0  0  0  0  0  0  0  0  0
    1.6238   -1.2375    0.0000 O   0  0  0  0  0  0  0  0  0  0  0  0
    3.0527   -1.2375    0.0000 C   0  0  0  0  0  0  0  0  0  0  0  0
    2.3383   -1.6500    0.0000 C   0  0  0  0  0  0  0  0  0  0  0  0
    2.3383   -2.4750    0.0000 C   0  0  0  0  0  0  0  0  0  0  0  0
    1.6238   -2.8875    0.0000 C   0  0  0  0  0  0  0  0  0  0  0  0
    3.0527   -2.8875    0.0000 C   0  0  0  0  0  0  0  0  0  0  0  0
    3.7672   -2.4750    0.0000 C   0  0  0  0  0  0  0  0  0  0  0  0
    4.4817   -2.8875    0.0000 C   0  0  0  0  0  0  0  0  0  0  0  0
    3.7672   -1.6500    0.0000 C   0  0  0  0  0  0  0  0  0  0  0  0
    4.4817   -1.2375    0.0000 O   0  0  0  0  0  0  0  0  0  0  0  0
  1  2  1  0  0  0  0
  2  3  1  0  0  0  0
  2  4  1  0  0  0  0
  4  5  1  0  0  0  0
  6  5  2  0  0  0  0
  7  6  1  0  0  0  0
  7  8  1  0  0  0  0
  9  7  2  0  0  0  0
 10  9  1  0  0  0  0
 10 11  1  0  0  0  0
 12 10  2  0  0  0  0
  5 12  1  0  0  0  0
 12 13  1  0  0  0  0
  4 14  1  0  0  0  0
 15 14  2  0  0  0  0
 16 15  1  0  0  0  0
 16 17  1  0  0  0  0
 18 16  2  0  0  0  0
 19 18  1  0  0  0  0
 19 20  1  0  0  0  0
 21 19  2  0  0  0  0
 14 21  1  0  0  0  0
 21 22  1  0  0  0  0
M  END
> <RowID>
928

> <Original_SMILES>
CC(C)C(C1=CC(C)=CC(C)=C1O)C1=CC(C)=CC(C)=C1O

> <Canonical_QSARr>
CC(C)C(C1=CC(C)=CC(C)=C1O)C1=CC(C)=CC(C)=C1O

> <InChI_Code_QSARr>
InChI=1S/C20H26O2/c1-11(2)18(16-9-12(3)7-14(5)19(16)21)17-10-13(4)8-15(6)20(17)22/h7-11,18,21-22H,1-6H3

> <InChI Key_QSARr>
SZAQZZKNQILGPU-UHFFFAOYSA-N

> <Salt_Solvent>


> <Salt_Solvent_ID>
0

> <Number of connected components>
1

$$$$
Molecule_929
  Mrv2316 01072400032D          

 19 18  0  0  0  0            999 V2000
    1.9833   -5.0533    0.0000 C   0  0  0  0  0  0  0  0  0  0  0  0
    2.4750   -5.7158    0.0000 C   0  0  0  0  0  0  0  0  0  0  0  0
    3.2946   -5.6211    0.0000 C   0  0  0  0  0  0  0  0  0  0  0  0
    3.7863   -6.2836    0.0000 C   0  0  0  0  0  0  0  0  0  0  0  0
    4.6058   -6.1889    0.0000 C   0  0  0  0  0  0  0  0  0  0  0  0
    5.0976   -6.8514    0.0000 C   0  0  0  0  0  0  0  0  0  0  0  0
    5.9171   -6.7567    0.0000 C   0  0  0  0  0  0  0  0  0  0  0  0
    6.4089   -7.4192    0.0000 C   0  0  0  0  0  0  0  0  0  0  0  0
    7.2284   -7.3245    0.0000 N   0  0  0  0  0  0  0  0  0  0  0  0
    7.7201   -7.9870    0.0000 C   0  0  0  0  0  0  0  0  0  0  0  0
    8.5397   -7.8923    0.0000 C   0  0  0  0  0  0  0  0  0  0  0  0
    9.0314   -8.5548    0.0000 C   0  0  0  0  0  0  0  0  0  0  0  0
    9.8510   -8.4602    0.0000 O   0  0  0  0  0  0  0  0  0  0  0  0
    8.7036   -9.3119    0.0000 O   0  0  0  0  0  0  0  0  0  0  0  0
    7.5562   -6.5675    0.0000 C   0  0  0  0  0  0  0  0  0  0  0  0
    8.3758   -6.4728    0.0000 C   0  0  0  0  0  0  0  0  0  0  0  0
    8.7036   -5.7158    0.0000 C   0  0  0  0  0  0  0  0  0  0  0  0
    8.2119   -5.0533    0.0000 O   0  0  0  0  0  0  0  0  0  0  0  0
    9.5232   -5.6211    0.0000 O   0  0  0  0  0  0  0  0  0  0  0  0
  1  2  1  0  0  0  0
  2  3  1  0  0  0  0
  3  4  1  0  0  0  0
  4  5  1  0  0  0  0
  5  6  1  0  0  0  0
  6  7  1  0  0  0  0
  7  8  1  0  0  0  0
  8  9  1  0  0  0  0
  9 10  1  0  0  0  0
 10 11  1  0  0  0  0
 11 12  1  0  0  0  0
 12 13  1  0  0  0  0
 12 14  2  0  0  0  0
  9 15  1  0  0  0  0
 15 16  1  0  0  0  0
 16 17  1  0  0  0  0
 17 18  1  0  0  0  0
 17 19  2  0  0  0  0
M  END
> <RowID>
929

> <Original_SMILES>
CCCCCCCCN(CCC(O)=O)CCC(O)=O

> <Canonical_QSARr>
CCCCCCCCN(CCC(O)=O)CCC(O)=O

> <InChI_Code_QSARr>
InChI=1S/C14H27NO4/c1-2-3-4-5-6-7-10-15(11-8-13(16)17)12-9-14(18)19/h2-12H2,1H3,(H,16,17)(H,18,19)

> <InChI Key_QSARr>
YZMCEFRJPWTZMX-UHFFFAOYSA-N

> <Salt_Solvent>


> <Salt_Solvent_ID>
0

> <Number of connected components>
1

$$$$
Molecule_930
  Mrv2316 01072400032D          

 21 24  0  0  0  0            999 V2000
    3.5330   -0.8989    0.0000 C   0  0  0  0  0  0  0  0  0  0  0  0
    3.8928   -1.6412    0.0000 C   0  0  0  0  0  0  0  0  0  0  0  0
    4.4247   -1.0105    0.0000 C   0  0  0  0  0  0  0  0  0  0  0  0
    5.2368   -1.1557    0.0000 C   0  0  0  0  0  0  0  0  0  0  0  0
    5.5171   -1.9317    0.0000 C   0  0  0  0  0  0  0  0  0  0  0  0
    4.9853   -2.5624    0.0000 C   0  0  0  0  0  0  0  0  0  0  0  0
    5.2656   -3.3383    0.0000 C   0  0  0  0  0  0  0  0  0  0  0  0
    6.0777   -3.4835    0.0000 C   0  0  0  0  0  0  0  0  0  0  0  0
    6.6095   -2.8528    0.0000 C   0  0  0  0  0  0  0  0  0  0  0  0
    7.4216   -2.9980    0.0000 C   0  0  0  0  0  0  0  0  0  0  0  0
    7.9534   -2.3673    0.0000 C   0  0  0  0  0  0  0  0  0  0  0  0
    8.7656   -2.5125    0.0000 O   0  0  0  0  0  0  0  0  0  0  0  0
    7.6731   -1.5914    0.0000 C   0  0  0  0  0  0  0  0  0  0  0  0
    6.8610   -1.4462    0.0000 C   0  0  0  0  0  0  0  0  0  0  0  0
    6.3292   -2.0769    0.0000 C   0  0  0  0  0  0  0  0  0  0  0  0
    6.0489   -1.3010    0.0000 C   0  0  0  0  0  0  0  0  0  0  0  0
    4.1731   -2.4172    0.0000 C   0  0  0  0  0  0  0  0  0  0  0  0
    3.5218   -2.9235    0.0000 C   0  0  0  0  0  0  0  0  0  0  0  0
    2.8390   -2.4605    0.0000 C   0  0  0  0  0  0  0  0  0  0  0  0
    3.0683   -1.6680    0.0000 C   0  0  0  0  0  0  0  0  0  0  0  0
    2.5619   -1.0167    0.0000 O   0  0  0  0  0  0  0  0  0  0  0  0
  1  2  1  0  0  0  0
  3  2  1  0  0  0  0
  4  3  1  0  0  0  0
  5  4  1  0  0  0  0
  5  6  1  0  0  0  0
  6  7  1  0  0  0  0
  7  8  1  0  0  0  0
  8  9  1  0  0  0  0
 10  9  2  0  0  0  0
 11 10  1  0  0  0  0
 11 12  2  0  0  0  0
 13 11  1  0  0  0  0
 14 13  2  0  0  0  0
 15 14  1  0  0  0  0
  9 15  1  0  0  0  0
 15  5  1  0  0  0  0
 15 16  1  0  0  0  0
 17  6  1  0  0  0  0
 17  2  1  0  0  0  0
 18 17  1  0  0  0  0
 19 18  1  0  0  0  0
 20 19  1  0  0  0  0
  2 20  1  0  0  0  0
 20 21  1  0  0  0  0
M  END
> <RowID>
930

> <Original_SMILES>
CC12CCC3C(CCC4=CC(=O)C=CC43C)C1CCC2O

> <Canonical_QSARr>
CC12CCC3C(CCC4=CC(=O)C=CC43C)C1CCC2O

> <InChI_Code_QSARr>
InChI=1S/C19H26O2/c1-18-9-7-13(20)11-12(18)3-4-14-15-5-6-17(21)19(15,2)10-8-16(14)18/h7,9,11,14-17,21H,3-6,8,10H2,1-2H3

> <InChI Key_QSARr>
RSIHSRDYCUFFLA-UHFFFAOYSA-N

> <Salt_Solvent>


> <Salt_Solvent_ID>
0

> <Number of connected components>
1

$$$$
Molecule_931
  Mrv2316 01072400032D          

 48 52  0  0  0  0            999 V2000
    2.2451    4.4179    0.0000 O   0  0  0  0  0  0  0  0  0  0  0  0
    2.0736    5.2249    0.0000 P   0  0  0  0  0  0  0  0  0  0  0  0
    1.9021    6.0319    0.0000 O   0  0  0  0  0  0  0  0  0  0  0  0
    1.2666    5.0534    0.0000 O   0  0  0  0  0  0  0  0  0  0  0  0
    1.0117    4.2687    0.0000 P   0  0  0  0  0  0  0  0  0  0  0  0
    0.7567    3.4841    0.0000 O   0  0  0  0  0  0  0  0  0  0  0  0
   -0.0502    3.3126    0.0000 C   0  0  0  0  0  0  0  0  0  0  0  0
   -0.3052    2.5280    0.0000 C   0  0  0  0  0  0  0  0  0  0  0  0
   -1.0898    2.2730    0.0000 C   0  0  0  0  0  0  0  0  0  0  0  0
   -1.7572    2.7579    0.0000 O   0  0  0  0  0  0  0  0  0  0  0  0
   -1.0898    1.4480    0.0000 C   0  0  0  0  0  0  0  0  0  0  0  0
   -1.7572    0.9631    0.0000 O   0  0  0  0  0  0  0  0  0  0  0  0
   -2.5109    1.2987    0.0000 P   0  0  0  0  0  0  0  0  0  0  0  0
   -2.1753    2.0523    0.0000 O   0  0  0  0  0  0  0  0  0  0  0  0
   -2.8465    0.5450    0.0000 O   0  0  0  0  0  0  0  0  0  0  0  0
   -3.2646    1.6342    0.0000 O   0  0  0  0  0  0  0  0  0  0  0  0
   -0.3052    1.1931    0.0000 C   0  0  0  0  0  0  0  0  0  0  0  0
   -0.0502    0.4085    0.0000 N   0  0  0  0  0  0  0  0  0  0  0  0
    0.7344    0.1535    0.0000 C   0  0  0  0  0  0  0  0  0  0  0  0
    1.4489    0.5660    0.0000 N   0  0  0  0  0  0  0  0  0  0  0  0
    2.1633    0.1535    0.0000 C   0  0  0  0  0  0  0  0  0  0  0  0
    2.1633   -0.6715    0.0000 N   0  0  0  0  0  0  0  0  0  0  0  0
    1.4489   -1.0840    0.0000 C   0  0  0  0  0  0  0  0  0  0  0  0
    1.4489   -1.9090    0.0000 N   0  0  0  0  0  0  0  0  0  0  0  0
    0.7344   -0.6715    0.0000 C   0  0  0  0  0  0  0  0  0  0  0  0
   -0.0502   -0.9264    0.0000 N   0  0  0  0  0  0  0  0  0  0  0  0
   -0.5352   -0.2590    0.0000 C   0  0  0  0  0  0  0  0  0  0  0  0
    0.1798    1.8605    0.0000 O   0  0  0  0  0  0  0  0  0  0  0  0
    1.7963    4.0138    0.0000 O   0  0  0  0  0  0  0  0  0  0  0  0
    0.2271    4.5237    0.0000 O   0  0  0  0  0  0  0  0  0  0  0  0
    2.8806    5.3964    0.0000 O   0  0  0  0  0  0  0  0  0  0  0  0
    3.1355    6.1810    0.0000 C   0  0  0  0  0  0  0  0  0  0  0  0
    3.9425    6.3526    0.0000 C   0  0  0  0  0  0  0  0  0  0  0  0
    4.5556    5.8005    0.0000 C   0  0  0  0  0  0  0  0  0  0  0  0
    4.4693    4.9800    0.0000 O   0  0  0  0  0  0  0  0  0  0  0  0
    5.2700    6.2130    0.0000 C   0  0  0  0  0  0  0  0  0  0  0  0
    6.0237    5.8775    0.0000 O   0  0  0  0  0  0  0  0  0  0  0  0
    5.0985    7.0200    0.0000 C   0  0  0  0  0  0  0  0  0  0  0  0
    5.6505    7.6331    0.0000 N   0  3  0  0  0  0  0  0  0  0  0  0
    6.4575    7.4616    0.0000 C   0  0  0  0  0  0  0  0  0  0  0  0
    7.0095    8.0747    0.0000 C   0  0  0  0  0  0  0  0  0  0  0  0
    6.7546    8.8593    0.0000 C   0  0  0  0  0  0  0  0  0  0  0  0
    5.9476    9.0308    0.0000 C   0  0  0  0  0  0  0  0  0  0  0  0
    5.6927    9.8154    0.0000 C   0  0  0  0  0  0  0  0  0  0  0  0
    6.2447   10.4285    0.0000 N   0  0  0  0  0  0  0  0  0  0  0  0
    4.8857    9.9870    0.0000 O   0  0  0  0  0  0  0  0  0  0  0  0
    5.3956    8.4177    0.0000 C   0  0  0  0  0  0  0  0  0  0  0  0
    4.2780    7.1062    0.0000 O   0  0  0  0  0  0  0  0  0  0  0  0
  1  2  1  0  0  0  0
  2  3  2  0  0  0  0
  2  4  1  0  0  0  0
  4  5  1  0  0  0  0
  5  6  1  0  0  0  0
  6  7  1  0  0  0  0
  7  8  1  0  0  0  0
  9  8  1  0  0  0  0
  9 10  1  0  0  0  0
 11  9  1  0  0  0  0
 11 12  1  0  0  0  0
 12 13  1  0  0  0  0
 13 14  1  0  0  0  0
 13 15  1  0  0  0  0
 13 16  2  0  0  0  0
 17 11  1  0  0  0  0
 17 18  1  0  0  0  0
 19 18  1  0  0  0  0
 19 20  2  0  0  0  0
 20 21  1  0  0  0  0
 21 22  2  0  0  0  0
 22 23  1  0  0  0  0
 23 24  1  0  0  0  0
 23 25  2  0  0  0  0
 25 19  1  0  0  0  0
 26 25  1  0  0  0  0
 27 26  2  0  0  0  0
 18 27  1  0  0  0  0
 28 17  1  0  0  0  0
  8 28  1  0  0  0  0
  5 29  2  0  0  0  0
  5 30  1  0  0  0  0
  2 31  1  0  0  0  0
 31 32  1  0  0  0  0
 32 33  1  0  0  0  0
 34 33  1  0  0  0  0
 34 35  1  0  0  0  0
 36 34  1  0  0  0  0
 36 37  1  0  0  0  0
 38 36  1  0  0  0  0
 38 39  1  0  0  0  0
 40 39  1  0  0  0  0
 41 40  2  0  0  0  0
 42 41  1  0  0  0  0
 43 42  2  0  0  0  0
 43 44  1  0  0  0  0
 44 45  1  0  0  0  0
 44 46  2  0  0  0  0
 47 43  1  0  0  0  0
 39 47  2  0  0  0  0
 48 38  1  0  0  0  0
 33 48  1  0  0  0  0
M  CHG  1  39   1
M  END
> <RowID>
931

> <Original_SMILES>
[Na+].[Na+].NC(=O)C1=C[N+](=CC=C1)C1OC(COP([O-])(=O)OP(O)(=O)OCC2OC(C(OP([O-])([O-])=O)C2O)N2C=NC3C2=NC=NC=3N)C(O)C1O

> <Canonical_QSARr>
NC(=O)C1C=[N+](C=CC=1)C1OC(COP(O)(=O)OP(O)(=O)OCC2OC(C(OP(O)(O)=O)C2O)N2C=NC3C2=NC=NC=3N)C(O)C1O

> <InChI_Code_QSARr>
InChI=1S/C21H28N7O17P3/c22-17-12-19(25-7-24-17)28(8-26-12)21-16(44-46(33,34)35)14(30)11(43-21)6-41-48(38,39)45-47(36,37)40-5-10-13(29)15(31)20(42-10)27-3-1-2-9(4-27)18(23)32/h1-4,7-8,10-11,13-16,20-21,29-31H,5-6H2,(H7-,22,23,24,25,32,33,34,35,36,37,38,39)/p+1

> <InChI Key_QSARr>
XJLXINKUBYWONI-UHFFFAOYSA-O

> <Salt_Solvent>
[Na+]

> <Salt_Solvent_ID>
110

> <Number of connected components>
3

$$$$
Molecule_932
  Mrv2316 01072400032D          

 24 27  0  0  0  0            999 V2000
    1.2383   -3.6793    0.0000 C   0  0  0  0  0  0  0  0  0  0  0  0
    1.7447   -3.0280    0.0000 C   0  0  0  0  0  0  0  0  0  0  0  0
    1.4338   -2.2638    0.0000 O   0  0  0  0  0  0  0  0  0  0  0  0
    2.5619   -3.1408    0.0000 O   0  0  0  0  0  0  0  0  0  0  0  0
    3.0683   -2.4895    0.0000 C   0  0  0  0  0  0  0  0  0  0  0  0
    2.8390   -1.6970    0.0000 C   0  0  0  0  0  0  0  0  0  0  0  0
    3.5218   -1.2340    0.0000 C   0  0  0  0  0  0  0  0  0  0  0  0
    4.1731   -1.7404    0.0000 C   0  0  0  0  0  0  0  0  0  0  0  0
    4.9853   -1.5952    0.0000 C   0  0  0  0  0  0  0  0  0  0  0  0
    5.2656   -0.8192    0.0000 C   0  0  0  0  0  0  0  0  0  0  0  0
    6.0777   -0.6740    0.0000 C   0  0  0  0  0  0  0  0  0  0  0  0
    6.6095   -1.3047    0.0000 C   0  0  0  0  0  0  0  0  0  0  0  0
    7.4216   -1.1595    0.0000 C   0  0  0  0  0  0  0  0  0  0  0  0
    7.9534   -1.7902    0.0000 C   0  0  0  0  0  0  0  0  0  0  0  0
    8.7656   -1.6450    0.0000 O   0  0  0  0  0  0  0  0  0  0  0  0
    7.6731   -2.5662    0.0000 C   0  0  0  0  0  0  0  0  0  0  0  0
    6.8610   -2.7114    0.0000 C   0  0  0  0  0  0  0  0  0  0  0  0
    6.3292   -2.0807    0.0000 C   0  0  0  0  0  0  0  0  0  0  0  0
    6.0489   -2.8566    0.0000 C   0  0  0  0  0  0  0  0  0  0  0  0
    5.5171   -2.2259    0.0000 C   0  0  0  0  0  0  0  0  0  0  0  0
    5.2368   -3.0018    0.0000 C   0  0  0  0  0  0  0  0  0  0  0  0
    4.4247   -3.1470    0.0000 C   0  0  0  0  0  0  0  0  0  0  0  0
    3.8928   -2.5163    0.0000 C   0  0  0  0  0  0  0  0  0  0  0  0
    3.5330   -3.2587    0.0000 C   0  0  0  0  0  0  0  0  0  0  0  0
  1  2  1  0  0  0  0
  2  3  2  0  0  0  0
  2  4  1  0  0  0  0
  4  5  1  0  0  0  0
  6  5  1  0  0  0  0
  7  6  1  0  0  0  0
  8  7  1  0  0  0  0
  8  9  1  0  0  0  0
 10  9  1  0  0  0  0
 11 10  1  0  0  0  0
 12 11  1  0  0  0  0
 12 13  1  0  0  0  0
 13 14  1  0  0  0  0
 14 15  2  0  0  0  0
 14 16  1  0  0  0  0
 16 17  1  0  0  0  0
 17 18  1  0  0  0  0
 18 12  1  0  0  0  0
 18 19  1  0  0  0  0
 20 18  1  0  0  0  0
  9 20  1  0  0  0  0
 20 21  1  0  0  0  0
 21 22  1  0  0  0  0
 22 23  1  0  0  0  0
  5 23  1  0  0  0  0
 23  8  1  0  0  0  0
 23 24  1  0  0  0  0
M  END
> <RowID>
932

> <Original_SMILES>
CC(=O)OC1CCC2C3CCC4CC(=O)CCC4(C)C3CCC12C

> <Canonical_QSARr>
CC(=O)OC1CCC2C3CCC4CC(=O)CCC4(C)C3CCC12C

> <InChI_Code_QSARr>
InChI=1S/C21H32O3/c1-13(22)24-19-7-6-17-16-5-4-14-12-15(23)8-10-20(14,2)18(16)9-11-21(17,19)3/h14,16-19H,4-12H2,1-3H3

> <InChI Key_QSARr>
ILCTUFVQFCIIDS-UHFFFAOYSA-N

> <Salt_Solvent>


> <Salt_Solvent_ID>
0

> <Number of connected components>
1

$$$$
Molecule_933
  Mrv2316 01072400032D          

 13 12  0  0  0  0            999 V2000
   -0.1914   -2.3645    0.0000 O   0  0  0  0  0  0  0  0  0  0  0  0
    0.5230   -1.9520    0.0000 C   0  0  0  0  0  0  0  0  0  0  0  0
    1.2375   -2.3645    0.0000 O   0  0  0  0  0  0  0  0  0  0  0  0
    0.5230   -1.1270    0.0000 C   0  0  0  0  0  0  0  0  0  0  0  0
    1.2375   -0.7145    0.0000 C   0  0  0  0  0  0  0  0  0  0  0  0
    1.9520   -0.3020    0.0000 C   0  0  0  0  0  0  0  0  0  0  0  0
    2.6664   -0.7145    0.0000 C   0  0  0  0  0  0  0  0  0  0  0  0
    3.3809   -0.3020    0.0000 O   0  0  0  0  0  0  0  0  0  0  0  0
    2.6664   -1.5395    0.0000 O   0  0  0  0  0  0  0  0  0  0  0  0
    1.6500   -1.4290    0.0000 O   0  0  0  0  0  0  0  0  0  0  0  0
    0.8250   -0.0000    0.0000 C   0  0  0  0  0  0  0  0  0  0  0  0
    1.2375    0.7145    0.0000 O   0  0  0  0  0  0  0  0  0  0  0  0
   -0.0000   -0.0000    0.0000 O   0  0  0  0  0  0  0  0  0  0  0  0
  1  2  1  0  0  0  0
  2  3  2  0  0  0  0
  2  4  1  0  0  0  0
  4  5  1  0  0  0  0
  5  6  1  0  0  0  0
  6  7  1  0  0  0  0
  7  8  1  0  0  0  0
  7  9  2  0  0  0  0
  5 10  1  0  0  0  0
  5 11  1  0  0  0  0
 11 12  1  0  0  0  0
 11 13  2  0  0  0  0
M  END
> <RowID>
933

> <Original_SMILES>
[Ca+2].[Ca+2].[Ca+2].[O-]C(=O)CC(O)(CC([O-])=O)C([O-])=O.[O-]C(=O)CC(O)(CC([O-])=O)C([O-])=O

> <Canonical_QSARr>
OC(=O)C(O)(CC(O)=O)CC(O)=O

> <InChI_Code_QSARr>
InChI=1S/C6H8O7/c7-3(8)1-6(13,5(11)12)2-4(9)10/h13H,1-2H2,(H,7,8)(H,9,10)(H,11,12)

> <InChI Key_QSARr>
KRKNYBCHXYNGOX-UHFFFAOYSA-N

> <Salt_Solvent>
[Ca+2]

> <Salt_Solvent_ID>
200

> <Number of connected components>
5

$$$$
Molecule_934
  Mrv2316 01072400032D          

 32 35  0  0  0  0            999 V2000
   -0.6455   -4.6892    0.0000 C   0  0  0  0  0  0  0  0  0  0  0  0
    0.1614   -4.5176    0.0000 O   0  0  0  0  0  0  0  0  0  0  0  0
    0.4164   -3.7330    0.0000 C   0  0  0  0  0  0  0  0  0  0  0  0
    1.2233   -3.5615    0.0000 C   0  0  0  0  0  0  0  0  0  0  0  0
    1.4783   -2.7769    0.0000 C   0  0  0  0  0  0  0  0  0  0  0  0
    0.9263   -2.1638    0.0000 C   0  0  0  0  0  0  0  0  0  0  0  0
    1.1812   -1.3792    0.0000 N   0  0  0  0  0  0  0  0  0  0  0  0
    0.6963   -0.7117    0.0000 N   0  0  0  0  0  0  0  0  0  0  0  0
    1.1812   -0.0443    0.0000 C   0  0  0  0  0  0  0  0  0  0  0  0
    0.9263    0.7403    0.0000 C   0  0  0  0  0  0  0  0  0  0  0  0
    1.4783    1.3534    0.0000 O   0  0  0  0  0  0  0  0  0  0  0  0
    0.1193    0.9119    0.0000 O   0  0  0  0  0  0  0  0  0  0  0  0
   -0.4328    0.2988    0.0000 C   0  0  0  0  0  0  0  0  0  0  0  0
   -1.2397    0.4703    0.0000 C   0  0  0  0  0  0  0  0  0  0  0  0
    1.9658   -0.2992    0.0000 C   0  0  0  0  0  0  0  0  0  0  0  0
    2.6803    0.1133    0.0000 C   0  0  0  0  0  0  0  0  0  0  0  0
    3.3948   -0.2992    0.0000 C   0  0  0  0  0  0  0  0  0  0  0  0
    3.3948   -1.1242    0.0000 N   0  0  0  0  0  0  0  0  0  0  0  0
    4.1092   -1.5367    0.0000 C   0  0  0  0  0  0  0  0  0  0  0  0
    4.1092   -2.3617    0.0000 C   0  0  0  0  0  0  0  0  0  0  0  0
    4.8237   -2.7742    0.0000 C   0  0  0  0  0  0  0  0  0  0  0  0
    5.5382   -2.3617    0.0000 C   0  0  0  0  0  0  0  0  0  0  0  0
    6.2526   -2.7742    0.0000 N   0  3  0  0  0  0  0  0  0  0  0  0
    6.9671   -2.3617    0.0000 O   0  5  0  0  0  0  0  0  0  0  0  0
    6.2526   -3.5992    0.0000 O   0  0  0  0  0  0  0  0  0  0  0  0
    5.5382   -1.5367    0.0000 C   0  0  0  0  0  0  0  0  0  0  0  0
    4.8237   -1.1242    0.0000 C   0  0  0  0  0  0  0  0  0  0  0  0
    2.6803   -1.5367    0.0000 C   0  0  0  0  0  0  0  0  0  0  0  0
    2.6803   -2.3617    0.0000 O   0  0  0  0  0  0  0  0  0  0  0  0
    1.9658   -1.1242    0.0000 C   0  0  0  0  0  0  0  0  0  0  0  0
    0.1193   -2.3353    0.0000 C   0  0  0  0  0  0  0  0  0  0  0  0
   -0.1357   -3.1199    0.0000 C   0  0  0  0  0  0  0  0  0  0  0  0
  1  2  1  0  0  0  0
  2  3  1  0  0  0  0
  4  3  1  0  0  0  0
  5  4  2  0  0  0  0
  6  5  1  0  0  0  0
  6  7  1  0  0  0  0
  8  7  1  0  0  0  0
  9  8  2  0  0  0  0
  9 10  1  0  0  0  0
 10 11  2  0  0  0  0
 10 12  1  0  0  0  0
 12 13  1  0  0  0  0
 13 14  1  0  0  0  0
 15  9  1  0  0  0  0
 15 16  1  0  0  0  0
 16 17  1  0  0  0  0
 17 18  1  0  0  0  0
 18 19  1  0  0  0  0
 20 19  1  0  0  0  0
 21 20  2  0  0  0  0
 22 21  1  0  0  0  0
 22 23  1  0  0  0  0
 23 24  1  0  0  0  0
 23 25  2  0  0  0  0
 26 22  2  0  0  0  0
 27 26  1  0  0  0  0
 19 27  2  0  0  0  0
 18 28  1  0  0  0  0
 28 29  2  0  0  0  0
 28 30  1  0  0  0  0
  7 30  1  0  0  0  0
 30 15  2  0  0  0  0
 31  6  2  0  0  0  0
 32 31  1  0  0  0  0
  3 32  2  0  0  0  0
M  CHG  2  23   1  24  -1
M  END
> <RowID>
934

> <Original_SMILES>
COC1C=CC(=CC=1)N1N=C(C2CCN(C3C=CC(=CC=3)[N+]([O-])=O)C(=O)C1=2)C(=O)OCC

> <Canonical_QSARr>
COC1C=CC(=CC=1)N1N=C(C2CCN(C3C=CC(=CC=3)[N+]([O-])=O)C(=O)C1=2)C(=O)OCC

> <InChI_Code_QSARr>
InChI=1S/C22H20N4O6/c1-3-32-22(28)19-18-12-13-24(14-4-6-16(7-5-14)26(29)30)21(27)20(18)25(23-19)15-8-10-17(31-2)11-9-15/h4-11H,3,12-13H2,1-2H3

> <InChI Key_QSARr>
RQNAOIQEGPVYTC-UHFFFAOYSA-N

> <Salt_Solvent>


> <Salt_Solvent_ID>
0

> <Number of connected components>
1

$$$$
Molecule_936
  Mrv2316 01072400032D          

 12 11  0  0  0  0            999 V2000
    2.9980    2.5559    0.0000 C   0  0  0  0  0  0  0  0  0  0  0  0
    3.7125    2.1434    0.0000 C   0  0  0  0  0  0  0  0  0  0  0  0
    4.4270    2.5559    0.0000 C   0  0  0  0  0  0  0  0  0  0  0  0
    5.1414    2.1434    0.0000 C   0  0  0  0  0  0  0  0  0  0  0  0
    5.8559    2.5559    0.0000 C   0  0  0  0  0  0  0  0  0  0  0  0
    6.5704    2.1434    0.0000 C   0  0  0  0  0  0  0  0  0  0  0  0
    7.2849    2.5559    0.0000 O   0  0  0  0  0  0  0  0  0  0  0  0
    7.9993    2.1434    0.0000 C   0  0  0  0  0  0  0  0  0  0  0  0
    8.7138    2.5559    0.0000 C   0  0  0  0  0  0  0  0  0  0  0  0
    7.9993    1.3184    0.0000 O   0  0  0  0  0  0  0  0  0  0  0  0
    5.8559    3.3809    0.0000 C   0  0  0  0  0  0  0  0  0  0  0  0
    6.5704    3.7934    0.0000 C   0  0  0  0  0  0  0  0  0  0  0  0
  1  2  1  0  0  0  0
  2  3  1  0  0  0  0
  3  4  1  0  0  0  0
  4  5  1  0  0  0  0
  5  6  1  0  0  0  0
  6  7  1  0  0  0  0
  7  8  1  0  0  0  0
  8  9  1  0  0  0  0
  8 10  2  0  0  0  0
  5 11  1  0  0  0  0
 11 12  1  0  0  0  0
M  END
> <RowID>
936

> <Original_SMILES>
CCCCC(COC(C)=O)CC

> <Canonical_QSARr>
CCCCC(COC(C)=O)CC

> <InChI_Code_QSARr>
InChI=1S/C10H20O2/c1-4-6-7-10(5-2)8-12-9(3)11/h10H,4-8H2,1-3H3

> <InChI Key_QSARr>
WOYWLLHHWAMFCB-UHFFFAOYSA-N

> <Salt_Solvent>


> <Salt_Solvent_ID>
0

> <Number of connected components>
1

$$$$
Molecule_937
  Mrv2316 01072400032D          

 18 18  0  0  0  0            999 V2000
    0.9101    6.1719    0.0000 C   0  0  0  0  0  0  0  0  0  0  0  0
    0.1956    5.7594    0.0000 C   0  0  0  0  0  0  0  0  0  0  0  0
    0.1956    4.9344    0.0000 O   0  0  0  0  0  0  0  0  0  0  0  0
   -0.5189    4.5219    0.0000 Si  0  0  0  0  0  0  0  0  0  0  0  0
   -1.2333    4.1094    0.0000 C   0  0  0  0  0  0  0  0  0  0  0  0
   -1.2333    3.2844    0.0000 C   0  0  0  0  0  0  0  0  0  0  0  0
   -1.9478    2.8719    0.0000 C   0  0  0  0  0  0  0  0  0  0  0  0
   -1.9478    2.0469    0.0000 O   0  0  0  0  0  0  0  0  0  0  0  0
   -2.6623    1.6344    0.0000 C   0  0  0  0  0  0  0  0  0  0  0  0
   -2.6623    0.8094    0.0000 C   0  0  0  0  0  0  0  0  0  0  0  0
   -3.0748    0.0949    0.0000 C   0  0  0  0  0  0  0  0  0  0  0  0
   -2.2498    0.0949    0.0000 O   0  0  0  0  0  0  0  0  0  0  0  0
   -0.9314    5.2364    0.0000 O   0  0  0  0  0  0  0  0  0  0  0  0
   -1.7564    5.2364    0.0000 C   0  0  0  0  0  0  0  0  0  0  0  0
   -2.1689    5.9509    0.0000 C   0  0  0  0  0  0  0  0  0  0  0  0
   -0.1064    3.8074    0.0000 O   0  0  0  0  0  0  0  0  0  0  0  0
   -0.5189    3.0930    0.0000 C   0  0  0  0  0  0  0  0  0  0  0  0
   -0.1064    2.3785    0.0000 C   0  0  0  0  0  0  0  0  0  0  0  0
  1  2  1  0  0  0  0
  2  3  1  0  0  0  0
  3  4  1  0  0  0  0
  4  5  1  0  0  0  0
  5  6  1  0  0  0  0
  6  7  1  0  0  0  0
  7  8  1  0  0  0  0
  8  9  1  0  0  0  0
  9 10  1  0  0  0  0
 11 10  1  0  0  0  0
 12 11  1  0  0  0  0
 10 12  1  0  0  0  0
  4 13  1  0  0  0  0
 13 14  1  0  0  0  0
 14 15  1  0  0  0  0
  4 16  1  0  0  0  0
 16 17  1  0  0  0  0
 17 18  1  0  0  0  0
M  END
> <RowID>
937

> <Original_SMILES>
CCO[Si](CCCOCC1CO1)(OCC)OCC

> <Canonical_QSARr>
CCO[Si](CCCOCC1CO1)(OCC)OCC

> <InChI_Code_QSARr>
InChI=1S/C12H26O5Si/c1-4-15-18(16-5-2,17-6-3)9-7-8-13-10-12-11-14-12/h12H,4-11H2,1-3H3

> <InChI Key_QSARr>
JXUKBNICSRJFAP-UHFFFAOYSA-N

> <Salt_Solvent>


> <Salt_Solvent_ID>
0

> <Number of connected components>
1

$$$$
Molecule_938
  Mrv2316 01072400032D          

  2  1  0  0  0  0            999 V2000
    0.8250    0.0000    0.0000 C   0  0  0  0  0  0  0  0  0  0  0  0
    0.0000    0.0000    0.0000 N   0  0  0  0  0  0  0  0  0  0  0  0
  1  2  3  0  0  0  0
M  END
> <RowID>
938

> <Original_SMILES>
O.O.O.O.O.O.O.O.O.O.O.O.[Co+3].[Co+3].[Zn+2].[Zn+2].[Zn+2].[C-]#N.[C-]#N.[C-]#N.[C-]#N.[C-]#N.[C-]#N.[C-]#N.[C-]#N.[C-]#N.[C-]#N.[C-]#N.[C-]#N

> <Canonical_QSARr>
C#N

> <InChI_Code_QSARr>
InChI=1S/CHN/c1-2/h1H

> <InChI Key_QSARr>
LELOWRISYMNNSU-UHFFFAOYSA-N

> <Salt_Solvent>
O.[Co+3].[Zn+2]

> <Salt_Solvent_ID>
175

> <Number of connected components>
29

$$$$
Molecule_939
  Mrv2316 01072400032D          

 23 22  0  0  0  0            999 V2000
   11.6605    7.5572    0.0000 C   0  0  0  0  0  0  0  0  0  0  0  0
   12.3750    7.1447    0.0000 C   0  0  0  0  0  0  0  0  0  0  0  0
   13.0895    7.5572    0.0000 C   0  0  0  0  0  0  0  0  0  0  0  0
   13.8039    7.1447    0.0000 C   0  0  0  0  0  0  0  0  0  0  0  0
   14.5184    7.5572    0.0000 O   0  0  0  0  0  0  0  0  0  0  0  0
   15.2329    7.1447    0.0000 C   0  0  0  0  0  0  0  0  0  0  0  0
   15.9473    7.5572    0.0000 C   0  0  0  0  0  0  0  0  0  0  0  0
   16.6618    7.1447    0.0000 O   0  0  0  0  0  0  0  0  0  0  0  0
   17.3763    7.5572    0.0000 C   0  0  0  0  0  0  0  0  0  0  0  0
   18.0908    7.1447    0.0000 C   0  0  0  0  0  0  0  0  0  0  0  0
   18.8052    7.5572    0.0000 O   0  0  0  0  0  0  0  0  0  0  0  0
   19.5197    7.1447    0.0000 C   0  0  0  0  0  0  0  0  0  0  0  0
   20.2342    7.5572    0.0000 O   0  0  0  0  0  0  0  0  0  0  0  0
   20.9486    7.1447    0.0000 C   0  0  0  0  0  0  0  0  0  0  0  0
   21.6631    7.5572    0.0000 C   0  0  0  0  0  0  0  0  0  0  0  0
   22.3776    7.1447    0.0000 O   0  0  0  0  0  0  0  0  0  0  0  0
   23.0921    7.5572    0.0000 C   0  0  0  0  0  0  0  0  0  0  0  0
   23.8065    7.1447    0.0000 C   0  0  0  0  0  0  0  0  0  0  0  0
   24.5210    7.5572    0.0000 O   0  0  0  0  0  0  0  0  0  0  0  0
   25.2355    7.1447    0.0000 C   0  0  0  0  0  0  0  0  0  0  0  0
   25.9499    7.5572    0.0000 C   0  0  0  0  0  0  0  0  0  0  0  0
   26.6644    7.1447    0.0000 C   0  0  0  0  0  0  0  0  0  0  0  0
   27.3789    7.5572    0.0000 C   0  0  0  0  0  0  0  0  0  0  0  0
  1  2  1  0  0  0  0
  2  3  1  0  0  0  0
  3  4  1  0  0  0  0
  4  5  1  0  0  0  0
  5  6  1  0  0  0  0
  6  7  1  0  0  0  0
  7  8  1  0  0  0  0
  8  9  1  0  0  0  0
  9 10  1  0  0  0  0
 10 11  1  0  0  0  0
 11 12  1  0  0  0  0
 12 13  1  0  0  0  0
 13 14  1  0  0  0  0
 14 15  1  0  0  0  0
 15 16  1  0  0  0  0
 16 17  1  0  0  0  0
 17 18  1  0  0  0  0
 18 19  1  0  0  0  0
 19 20  1  0  0  0  0
 20 21  1  0  0  0  0
 21 22  1  0  0  0  0
 22 23  1  0  0  0  0
M  END
> <RowID>
939

> <Original_SMILES>
CCCCOCCOCCOCOCCOCCOCCCC

> <Canonical_QSARr>
CCCCOCCOCCOCOCCOCCOCCCC

> <InChI_Code_QSARr>
InChI=1S/C17H36O6/c1-3-5-7-18-9-11-20-13-15-22-17-23-16-14-21-12-10-19-8-6-4-2/h3-17H2,1-2H3

> <InChI Key_QSARr>
DKWHHTWSTXZKDW-UHFFFAOYSA-N

> <Salt_Solvent>


> <Salt_Solvent_ID>
0

> <Number of connected components>
1

$$$$
Molecule_940
  Mrv2316 01072400032D          

 69 75  0  0  0  0            999 V2000
    5.6640   -4.9559    0.0000 O   0  0  0  0  0  0  0  0  0  0  0  0
    4.9496   -5.3684    0.0000 C   0  0  0  0  0  0  0  0  0  0  0  0
    4.2351   -4.9559    0.0000 N   0  0  0  0  0  0  0  0  0  0  0  0
    4.2351   -4.1309    0.0000 C   0  0  0  0  0  0  0  0  0  0  0  0
    4.9496   -3.7184    0.0000 C   0  0  0  0  0  0  0  0  0  0  0  0
    4.9496   -2.8934    0.0000 C   0  0  0  0  0  0  0  0  0  0  0  0
    5.6640   -2.4809    0.0000 N   0  0  0  0  0  0  0  0  0  0  0  0
    5.6640   -1.6559    0.0000 C   0  0  0  0  0  0  0  0  0  0  0  0
    6.3785   -2.8934    0.0000 C   0  0  0  0  0  0  0  0  0  0  0  0
    3.5206   -5.3684    0.0000 C   0  0  0  0  0  0  0  0  0  0  0  0
    2.8061   -4.9559    0.0000 O   0  0  0  0  0  0  0  0  0  0  0  0
    3.5206   -6.1934    0.0000 C   0  0  0  0  0  0  0  0  0  0  0  0
    2.8061   -6.6059    0.0000 N   0  0  0  0  0  0  0  0  0  0  0  0
    2.0917   -6.1934    0.0000 N   0  0  0  0  0  0  0  0  0  0  0  0
    1.3772   -6.6059    0.0000 C   0  0  0  0  0  0  0  0  0  0  0  0
    0.6627   -6.1934    0.0000 C   0  0  0  0  0  0  0  0  0  0  0  0
   -0.0517   -6.6059    0.0000 C   0  0  0  0  0  0  0  0  0  0  0  0
   -0.0517   -7.4309    0.0000 C   0  0  0  0  0  0  0  0  0  0  0  0
   -0.7662   -7.8434    0.0000 C   0  0  0  0  0  0  0  0  0  0  0  0
   -0.7662   -8.6684    0.0000 C   0  0  0  0  0  0  0  0  0  0  0  0
   -1.4807   -9.0809    0.0000 C   0  0  0  0  0  0  0  0  0  0  0  0
   -1.4807   -9.9059    0.0000 C   0  0  0  0  0  0  0  0  0  0  0  0
   -0.7662  -10.3184    0.0000 C   0  0  0  0  0  0  0  0  0  0  0  0
   -0.0517   -9.9059    0.0000 C   0  0  0  0  0  0  0  0  0  0  0  0
   -0.0517   -9.0809    0.0000 C   0  0  0  0  0  0  0  0  0  0  0  0
   -1.4807   -7.4309    0.0000 C   0  0  0  0  0  0  0  0  0  0  0  0
   -1.4807   -6.6059    0.0000 C   0  0  0  0  0  0  0  0  0  0  0  0
   -0.7662   -6.1934    0.0000 O   0  0  0  0  0  0  0  0  0  0  0  0
   -0.7662   -5.3684    0.0000 C   0  0  0  0  0  0  0  0  0  0  0  0
   -2.1951   -6.1934    0.0000 C   0  0  0  0  0  0  0  0  0  0  0  0
   -2.9096   -6.6059    0.0000 C   0  0  0  0  0  0  0  0  0  0  0  0
   -3.6241   -6.1934    0.0000 N   0  0  0  0  0  0  0  0  0  0  0  0
   -4.3386   -6.6059    0.0000 N   0  0  0  0  0  0  0  0  0  0  0  0
   -5.0530   -6.1934    0.0000 C   0  0  0  0  0  0  0  0  0  0  0  0
   -5.0530   -5.3684    0.0000 C   0  0  0  0  0  0  0  0  0  0  0  0
   -4.3386   -4.9559    0.0000 C   0  0  0  0  0  0  0  0  0  0  0  0
   -5.7675   -4.9559    0.0000 C   0  0  0  0  0  0  0  0  0  0  0  0
   -5.7675   -4.1309    0.0000 N   0  3  0  0  0  0  0  0  0  0  0  0
   -5.0530   -3.7184    0.0000 C   0  0  0  0  0  0  0  0  0  0  0  0
   -5.0530   -2.8934    0.0000 C   0  0  0  0  0  0  0  0  0  0  0  0
   -5.7675   -2.4809    0.0000 C   0  0  0  0  0  0  0  0  0  0  0  0
   -6.4820   -2.8934    0.0000 C   0  0  0  0  0  0  0  0  0  0  0  0
   -6.4820   -3.7184    0.0000 C   0  0  0  0  0  0  0  0  0  0  0  0
   -6.4820   -5.3684    0.0000 C   0  0  0  0  0  0  0  0  0  0  0  0
   -7.1964   -4.9559    0.0000 O   0  0  0  0  0  0  0  0  0  0  0  0
   -6.4820   -6.1934    0.0000 N   0  0  0  0  0  0  0  0  0  0  0  0
   -7.1964   -6.6059    0.0000 C   0  0  0  0  0  0  0  0  0  0  0  0
   -7.9109   -6.1934    0.0000 C   0  0  0  0  0  0  0  0  0  0  0  0
   -8.6254   -6.6059    0.0000 C   0  0  0  0  0  0  0  0  0  0  0  0
   -9.3399   -6.1934    0.0000 N   0  0  0  0  0  0  0  0  0  0  0  0
  -10.0543   -6.6059    0.0000 C   0  0  0  0  0  0  0  0  0  0  0  0
   -9.3399   -5.3684    0.0000 C   0  0  0  0  0  0  0  0  0  0  0  0
   -5.7675   -6.6059    0.0000 C   0  0  0  0  0  0  0  0  0  0  0  0
   -5.7675   -7.4309    0.0000 O   0  0  0  0  0  0  0  0  0  0  0  0
   -2.9096   -7.4309    0.0000 C   0  0  0  0  0  0  0  0  0  0  0  0
   -2.1951   -7.8434    0.0000 C   0  0  0  0  0  0  0  0  0  0  0  0
    0.6627   -7.8434    0.0000 C   0  0  0  0  0  0  0  0  0  0  0  0
    0.6627   -8.6684    0.0000 O   0  0  0  0  0  0  0  0  0  0  0  0
    1.3772   -9.0809    0.0000 C   0  0  0  0  0  0  0  0  0  0  0  0
    1.3772   -7.4309    0.0000 C   0  0  0  0  0  0  0  0  0  0  0  0
    4.2351   -6.6059    0.0000 C   0  0  0  0  0  0  0  0  0  0  0  0
    4.2351   -7.4309    0.0000 C   0  0  0  0  0  0  0  0  0  0  0  0
    4.9496   -6.1934    0.0000 C   0  0  0  0  0  0  0  0  0  0  0  0
    5.6640   -6.6059    0.0000 N   0  3  0  0  0  0  0  0  0  0  0  0
    5.6640   -7.4309    0.0000 C   0  0  0  0  0  0  0  0  0  0  0  0
    6.3785   -7.8434    0.0000 C   0  0  0  0  0  0  0  0  0  0  0  0
    7.0930   -7.4309    0.0000 C   0  0  0  0  0  0  0  0  0  0  0  0
    7.0930   -6.6059    0.0000 C   0  0  0  0  0  0  0  0  0  0  0  0
    6.3785   -6.1934    0.0000 C   0  0  0  0  0  0  0  0  0  0  0  0
  1  2  2  0  0  0  0
  3  2  1  0  0  0  0
  3  4  1  0  0  0  0
  4  5  1  0  0  0  0
  5  6  1  0  0  0  0
  6  7  1  0  0  0  0
  7  8  1  0  0  0  0
  7  9  1  0  0  0  0
 10  3  1  0  0  0  0
 10 11  2  0  0  0  0
 12 10  1  0  0  0  0
 13 12  1  4  0  0  0
 13 14  2  0  0  0  0
 14 15  1  0  0  0  0
 16 15  1  0  0  0  0
 17 16  2  0  0  0  0
 18 17  1  0  0  0  0
 18 19  1  0  0  0  0
 19 20  1  0  0  0  0
 21 20  1  0  0  0  0
 22 21  2  0  0  0  0
 23 22  1  0  0  0  0
 24 23  2  0  0  0  0
 25 24  1  0  0  0  0
 20 25  2  0  0  0  0
 19 26  1  0  0  0  0
 27 26  1  0  0  0  0
 27 28  1  0  0  0  0
 28 29  1  0  0  0  0
 30 27  2  0  0  0  0
 31 30  1  0  0  0  0
 32 31  1  4  0  0  0
 32 33  2  0  0  0  0
 33 34  1  0  0  0  0
 35 34  2  0  0  0  0
 35 36  1  0  0  0  0
 37 35  1  0  0  0  0
 37 38  1  0  0  0  0
 39 38  1  0  0  0  0
 40 39  2  0  0  0  0
 41 40  1  0  0  0  0
 42 41  2  0  0  0  0
 43 42  1  0  0  0  0
 38 43  2  0  0  0  0
 44 37  1  0  0  0  0
 44 45  2  0  0  0  0
 46 44  1  0  0  0  0
 46 47  1  0  0  0  0
 47 48  1  0  0  0  0
 48 49  1  0  0  0  0
 49 50  1  0  0  0  0
 50 51  1  0  0  0  0
 50 52  1  0  0  0  0
 53 46  1  0  0  0  0
 34 53  1  0  0  0  0
 53 54  2  0  0  0  0
 55 31  2  0  0  0  0
 56 55  1  0  0  0  0
 26 56  2  0  0  0  0
 57 18  2  0  0  0  0
 57 58  1  0  0  0  0
 58 59  1  0  0  0  0
 60 57  1  0  0  0  0
 15 60  2  0  0  0  0
 61 12  2  0  0  0  0
 61 62  1  0  0  0  0
 63 61  1  0  0  0  0
  2 63  1  0  0  0  0
 63 64  1  0  0  0  0
 65 64  1  0  0  0  0
 66 65  2  0  0  0  0
 67 66  1  0  0  0  0
 68 67  2  0  0  0  0
 69 68  1  0  0  0  0
 64 69  2  0  0  0  0
M  CHG  2  38   1  64   1
M  END
> <RowID>
940

> <Original_SMILES>
[Cl-].CC(O)C([O-])=O.CN(C)CCCN1C(=O)C(N=NC2=CC(OC)=C(C=C2)C(C2C=CC(=CC=2OC)N=NC2C(=O)N(CCCN(C)C)C(O)=C(C=2C)[N+]2C=CC=CC=2)C2C=CC=CC=2)=C(C)C(=C1O)[N+]1C=CC=CC=1

> <Canonical_QSARr>
CC1C(C(=O)N(CCCN(C)C)C(=O)C=1N=NC1=CC(OC)=C(C=C1)C(C1=CC=C(C=C1OC)N=NC1C(=O)N(CCCN(C)C)C(=O)C(C=1C)[N+]1C=CC=CC=1)C1C=CC=CC=1)[N+]1C=CC=CC=1

> <InChI_Code_QSARr>
InChI=1S/C53H60N10O6/c1-36-46(50(64)62(32-18-26-58(3)4)52(66)48(36)60-28-14-10-15-29-60)56-54-39-22-24-41(43(34-39)68-7)45(38-20-12-9-13-21-38)42-25-23-40(35-44(42)69-8)55-57-47-37(2)49(61-30-16-11-17-31-61)53(67)63(51(47)65)33-19-27-59(5)6/h9-17,20-25,28-31,34-35,45,48-49H,18-19,26-27,32-33H2,1-8H3/q+2

> <InChI Key_QSARr>
BGYKQIZFDIYLEH-UHFFFAOYSA-N

> <Salt_Solvent>
CC(C(=O)[O-])O.[Cl-]

> <Salt_Solvent_ID>
1139

> <Number of connected components>
3

$$$$
Molecule_941
  Mrv2316 01072400032D          

 42 45  0  0  0  0            999 V2000
   -5.8997   -1.7020    0.0000 C   0  0  0  0  0  0  0  0  0  0  0  0
   -5.2581   -2.2207    0.0000 C   0  0  0  0  0  0  0  0  0  0  0  0
   -4.4882   -1.9243    0.0000 C   0  0  0  0  0  0  0  0  0  0  0  0
   -3.8466   -2.4429    0.0000 C   0  0  0  0  0  0  0  0  0  0  0  0
   -3.0766   -2.1466    0.0000 C   0  0  0  0  0  0  0  0  0  0  0  0
   -2.4350   -2.6652    0.0000 C   0  0  0  0  0  0  0  0  0  0  0  0
   -1.6651   -2.3688    0.0000 C   0  0  0  0  0  0  0  0  0  0  0  0
   -1.0235   -2.8874    0.0000 C   0  0  0  0  0  0  0  0  0  0  0  0
   -0.2535   -2.5911    0.0000 C   0  0  0  0  0  0  0  0  0  0  0  0
    0.3881   -3.1097    0.0000 C   0  0  0  0  0  0  0  0  0  0  0  0
    1.1580   -2.8134    0.0000 C   0  0  0  0  0  0  0  0  0  0  0  0
    1.7996   -3.3320    0.0000 C   0  0  0  0  0  0  0  0  0  0  0  0
    2.5696   -3.0356    0.0000 C   0  0  0  0  0  0  0  0  0  0  0  0
    2.6979   -2.2207    0.0000 N   0  0  0  0  0  0  0  0  0  0  0  0
    2.0563   -1.7020    0.0000 C   0  0  0  0  0  0  0  0  0  0  0  0
    1.2863   -1.9984    0.0000 C   0  0  0  0  0  0  0  0  0  0  0  0
    0.6447   -1.4798    0.0000 C   0  0  0  0  0  0  0  0  0  0  0  0
    0.7730   -0.6648    0.0000 C   0  0  0  0  0  0  0  0  0  0  0  0
    0.1314   -0.1462    0.0000 C   0  0  0  0  0  0  0  0  0  0  0  0
    0.2598    0.6687    0.0000 C   0  0  0  0  0  0  0  0  0  0  0  0
    1.0297    0.9651    0.0000 C   0  0  0  0  0  0  0  0  0  0  0  0
    1.6713    0.4465    0.0000 C   0  0  0  0  0  0  0  0  0  0  0  0
    1.5430   -0.3685    0.0000 C   0  0  0  0  0  0  0  0  0  0  0  0
    2.1846   -0.8871    0.0000 C   0  0  0  0  0  0  0  0  0  0  0  0
    2.9545   -0.5907    0.0000 N   0  0  0  0  0  0  0  0  0  0  0  0
    3.5961   -1.1093    0.0000 N   0  0  0  0  0  0  0  0  0  0  0  0
    4.3661   -0.8130    0.0000 C   0  0  0  0  0  0  0  0  0  0  0  0
    5.0077   -1.3316    0.0000 C   0  0  0  0  0  0  0  0  0  0  0  0
    5.7776   -1.0353    0.0000 C   0  0  0  0  0  0  0  0  0  0  0  0
    5.9060   -0.2203    0.0000 C   0  0  0  0  0  0  0  0  0  0  0  0
    6.6759    0.0760    0.0000 N   0  0  0  0  0  0  0  0  0  0  0  0
    7.3175   -0.4426    0.0000 N   0  0  0  0  0  0  0  0  0  0  0  0
    8.0874   -0.1462    0.0000 C   0  0  0  0  0  0  0  0  0  0  0  0
    8.7291   -0.6648    0.0000 C   0  0  0  0  0  0  0  0  0  0  0  0
    9.4990   -0.3685    0.0000 C   0  0  0  0  0  0  0  0  0  0  0  0
    9.6273    0.4465    0.0000 C   0  0  0  0  0  0  0  0  0  0  0  0
    8.9857    0.9651    0.0000 C   0  0  0  0  0  0  0  0  0  0  0  0
    8.2158    0.6687    0.0000 C   0  0  0  0  0  0  0  0  0  0  0  0
    7.5742    1.1874    0.0000 C   0  0  0  0  0  0  0  0  0  0  0  0
    5.2643    0.2983    0.0000 C   0  0  0  0  0  0  0  0  0  0  0  0
    4.4944    0.0020    0.0000 C   0  0  0  0  0  0  0  0  0  0  0  0
    3.8528    0.5206    0.0000 C   0  0  0  0  0  0  0  0  0  0  0  0
  1  2  1  0  0  0  0
  2  3  1  0  0  0  0
  3  4  1  0  0  0  0
  4  5  1  0  0  0  0
  5  6  1  0  0  0  0
  6  7  1  0  0  0  0
  7  8  1  0  0  0  0
  8  9  1  0  0  0  0
  9 10  1  0  0  0  0
 10 11  1  0  0  0  0
 11 12  1  0  0  0  0
 12 13  1  0  0  0  0
 13 14  1  0  0  0  0
 14 15  1  0  0  0  0
 16 15  1  0  0  0  0
 17 16  2  0  0  0  0
 18 17  1  0  0  0  0
 18 19  2  0  0  0  0
 19 20  1  0  0  0  0
 20 21  2  0  0  0  0
 21 22  1  0  0  0  0
 22 23  2  0  0  0  0
 23 18  1  0  0  0  0
 24 23  1  0  0  0  0
 15 24  2  0  0  0  0
 25 24  1  4  0  0  0
 25 26  2  0  0  0  0
 26 27  1  0  0  0  0
 28 27  1  0  0  0  0
 29 28  2  0  0  0  0
 30 29  1  0  0  0  0
 31 30  1  4  0  0  0
 31 32  2  0  0  0  0
 32 33  1  0  0  0  0
 34 33  1  0  0  0  0
 35 34  2  0  0  0  0
 36 35  1  0  0  0  0
 37 36  2  0  0  0  0
 38 37  1  0  0  0  0
 33 38  2  0  0  0  0
 38 39  1  0  0  0  0
 40 30  2  0  0  0  0
 41 40  1  0  0  0  0
 27 41  2  0  0  0  0
 41 42  1  0  0  0  0
M  END
> <RowID>
941

> <Original_SMILES>
CCCCCCCCCCCCCNC1C=CC2=CC=CC=C2C=1N=NC1C=CC(=CC=1C)N=NC1C=CC=CC=1C

> <Canonical_QSARr>
CCCCCCCCCCCCCNC1C=CC2=CC=CC=C2C=1N=NC1C=CC(=CC=1C)N=NC1C=CC=CC=1C

> <InChI_Code_QSARr>
InChI=1S/C37H47N5/c1-4-5-6-7-8-9-10-11-12-13-18-27-38-36-25-23-31-20-15-16-21-33(31)37(36)42-41-35-26-24-32(28-30(35)3)39-40-34-22-17-14-19-29(34)2/h14-17,19-26,28,38H,4-13,18,27H2,1-3H3

> <InChI Key_QSARr>
QAGZJRBUGVRFNF-UHFFFAOYSA-N

> <Salt_Solvent>


> <Salt_Solvent_ID>
0

> <Number of connected components>
1

$$$$
Molecule_942
  Mrv2316 01072400032D          

  8  7  0  0  0  0            999 V2000
    1.2375    2.1434    0.0000 C   0  0  0  0  0  0  0  0  0  0  0  0
    0.8250    1.4289    0.0000 C   0  0  0  0  0  0  0  0  0  0  0  0
   -0.0000    1.4289    0.0000 O   0  0  0  0  0  0  0  0  0  0  0  0
    1.2375    0.7145    0.0000 C   0  0  0  0  0  0  0  0  0  0  0  0
    2.0625    0.7145    0.0000 N   0  0  0  0  0  0  0  0  0  0  0  0
    0.8250   -0.0000    0.0000 C   0  0  0  0  0  0  0  0  0  0  0  0
    1.2375   -0.7145    0.0000 O   0  0  0  0  0  0  0  0  0  0  0  0
    0.0000   -0.0000    0.0000 O   0  0  0  0  0  0  0  0  0  0  0  0
  1  2  1  0  0  0  0
  2  3  1  0  0  0  0
  2  4  1  0  0  0  0
  4  5  1  0  0  0  0
  4  6  1  0  0  0  0
  6  7  1  0  0  0  0
  6  8  2  0  0  0  0
M  END
> <RowID>
942

> <Original_SMILES>
CC(O)C(N)C(O)=O

> <Canonical_QSARr>
CC(O)C(N)C(O)=O

> <InChI_Code_QSARr>
InChI=1S/C4H9NO3/c1-2(6)3(5)4(7)8/h2-3,6H,5H2,1H3,(H,7,8)

> <InChI Key_QSARr>
AYFVYJQAPQTCCC-UHFFFAOYSA-N

> <Salt_Solvent>


> <Salt_Solvent_ID>
0

> <Number of connected components>
1

$$$$
Molecule_943
  Mrv2316 01072400032D          

 41 44  0  0  0  0            999 V2000
   -9.6587    1.7940    0.0000 O   0  0  0  0  0  0  0  0  0  0  0  0
   -9.2462    1.0795    0.0000 S   0  0  0  0  0  0  0  0  0  0  0  0
   -9.9607    0.6670    0.0000 O   0  0  0  0  0  0  0  0  0  0  0  0
   -8.5317    1.4920    0.0000 O   0  0  0  0  0  0  0  0  0  0  0  0
   -8.8337    0.3651    0.0000 C   0  0  0  0  0  0  0  0  0  0  0  0
   -8.0087    0.3651    0.0000 C   0  0  0  0  0  0  0  0  0  0  0  0
   -7.5962   -0.3494    0.0000 N   0  0  0  0  0  0  0  0  0  0  0  0
   -6.7712   -0.3494    0.0000 C   0  0  0  0  0  0  0  0  0  0  0  0
   -6.3587   -1.0639    0.0000 C   0  0  0  0  0  0  0  0  0  0  0  0
   -5.5337   -1.0639    0.0000 C   0  0  0  0  0  0  0  0  0  0  0  0
   -5.1212   -0.3494    0.0000 C   0  0  0  0  0  0  0  0  0  0  0  0
   -4.2962   -0.3494    0.0000 C   0  0  0  0  0  0  0  0  0  0  0  0
   -3.8837   -1.0639    0.0000 C   0  0  0  0  0  0  0  0  0  0  0  0
   -3.0587   -1.0639    0.0000 C   0  0  0  0  0  0  0  0  0  0  0  0
   -2.6462   -1.7783    0.0000 N   0  0  0  0  0  0  0  0  0  0  0  0
   -1.8212   -1.7783    0.0000 C   0  0  0  0  0  0  0  0  0  0  0  0
   -1.4087   -2.4928    0.0000 C   0  0  0  0  0  0  0  0  0  0  0  0
   -0.5837   -2.4928    0.0000 C   0  0  0  0  0  0  0  0  0  0  0  0
   -0.1712   -1.7783    0.0000 C   0  0  0  0  0  0  0  0  0  0  0  0
    0.6538   -1.7783    0.0000 C   0  0  0  0  0  0  0  0  0  0  0  0
    1.1387   -1.1109    0.0000 N   0  0  0  0  0  0  0  0  0  0  0  0
    1.9233   -1.3658    0.0000 C   0  0  0  0  0  0  0  0  0  0  0  0
    2.6378   -0.9533    0.0000 C   0  0  0  0  0  0  0  0  0  0  0  0
    3.3523   -1.3658    0.0000 C   0  0  0  0  0  0  0  0  0  0  0  0
    3.3523   -2.1908    0.0000 C   0  0  0  0  0  0  0  0  0  0  0  0
    4.0668   -2.6033    0.0000 C   0  0  0  0  0  0  0  0  0  0  0  0
    2.6378   -2.6033    0.0000 C   0  0  0  0  0  0  0  0  0  0  0  0
    2.6378   -3.4283    0.0000 S   0  0  0  0  0  0  0  0  0  0  0  0
    2.6378   -4.2533    0.0000 O   0  0  0  0  0  0  0  0  0  0  0  0
    1.8128   -3.4283    0.0000 O   0  0  0  0  0  0  0  0  0  0  0  0
    3.4628   -3.4283    0.0000 O   0  0  0  0  0  0  0  0  0  0  0  0
    1.9233   -2.1908    0.0000 C   0  0  0  0  0  0  0  0  0  0  0  0
    1.1387   -2.4458    0.0000 S   0  0  0  0  0  0  0  0  0  0  0  0
   -0.5837   -1.0639    0.0000 C   0  0  0  0  0  0  0  0  0  0  0  0
   -1.4087   -1.0639    0.0000 C   0  0  0  0  0  0  0  0  0  0  0  0
   -2.6462   -0.3494    0.0000 O   0  0  0  0  0  0  0  0  0  0  0  0
   -4.2962   -1.7783    0.0000 C   0  0  0  0  0  0  0  0  0  0  0  0
   -4.7087   -2.4928    0.0000 N   0  0  0  0  0  0  0  0  0  0  0  0
   -5.5337    0.3651    0.0000 C   0  0  0  0  0  0  0  0  0  0  0  0
   -6.3587    0.3651    0.0000 C   0  0  0  0  0  0  0  0  0  0  0  0
   -8.0087   -1.0639    0.0000 C   0  0  0  0  0  0  0  0  0  0  0  0
  1  2  1  0  0  0  0
  2  3  2  0  0  0  0
  2  4  2  0  0  0  0
  2  5  1  0  0  0  0
  5  6  1  0  0  0  0
  6  7  1  0  0  0  0
  7  8  1  0  0  0  0
  9  8  2  0  0  0  0
 10  9  1  0  0  0  0
 11 10  2  0  0  0  0
 12 11  1  4  0  0  0
 12 13  2  0  0  0  0
 13 14  1  0  0  0  0
 14 15  1  0  0  0  0
 15 16  1  0  0  0  0
 17 16  2  0  0  0  0
 18 17  1  0  0  0  0
 19 18  2  0  0  0  0
 19 20  1  0  0  0  0
 21 20  2  0  0  0  0
 22 21  1  0  0  0  0
 22 23  1  0  0  0  0
 23 24  2  0  0  0  0
 24 25  1  0  0  0  0
 25 26  1  0  0  0  0
 25 27  2  0  0  0  0
 27 28  1  0  0  0  0
 28 29  1  0  0  0  0
 28 30  2  0  0  0  0
 28 31  2  0  0  0  0
 27 32  1  0  0  0  0
 32 22  2  0  0  0  0
 33 32  1  0  0  0  0
 20 33  1  0  0  0  0
 34 19  1  0  0  0  0
 35 34  2  0  0  0  0
 16 35  1  0  0  0  0
 14 36  2  0  0  0  0
 13 37  1  0  0  0  0
 37 38  3  0  0  0  0
 39 11  1  0  0  0  0
 40 39  2  0  0  0  0
  8 40  1  0  0  0  0
  7 41  1  0  0  0  0
M  END
> <RowID>
943

> <Original_SMILES>
[Na+].[Na+].CC1=CC=C2N=C(SC2=C1S([O-])(=O)=O)C1C=CC(=CC=1)NC(=O)C(=CC1C=CC(=CC=1)N(C)CCS([O-])(=O)=O)C#N

> <Canonical_QSARr>
CC1C=CC2N=C(SC=2C=1S(O)(=O)=O)C1C=CC(=CC=1)NC(=O)C(=CC1C=CC(=CC=1)N(C)CCS(O)(=O)=O)C#N

> <InChI_Code_QSARr>
InChI=1S/C27H24N4O7S3/c1-17-3-12-23-24(25(17)41(36,37)38)39-27(30-23)19-6-8-21(9-7-19)29-26(32)20(16-28)15-18-4-10-22(11-5-18)31(2)13-14-40(33,34)35/h3-12,15H,13-14H2,1-2H3,(H,29,32)(H,33,34,35)(H,36,37,38)

> <InChI Key_QSARr>
YSNTXQGYWAKSAZ-UHFFFAOYSA-N

> <Salt_Solvent>
[Na+]

> <Salt_Solvent_ID>
110

> <Number of connected components>
3

$$$$
Molecule_944
  Mrv2316 01072400032D          

  5  4  0  0  0  0            999 V2000
    2.4750   -1.4289    0.0000 Cl  0  0  0  0  0  0  0  0  0  0  0  0
    2.0625   -0.7145    0.0000 C   0  0  0  0  0  0  0  0  0  0  0  0
    1.2375   -0.7145    0.0000 C   0  0  0  0  0  0  0  0  0  0  0  0
    0.8250   -0.0000    0.0000 C   0  0  0  0  0  0  0  0  0  0  0  0
    0.0000   -0.0000    0.0000 Br  0  0  0  0  0  0  0  0  0  0  0  0
  1  2  1  0  0  0  0
  2  3  1  0  0  0  0
  3  4  1  0  0  0  0
  4  5  1  0  0  0  0
M  END
> <RowID>
944

> <Original_SMILES>
ClCCCBr

> <Canonical_QSARr>
ClCCCBr

> <InChI_Code_QSARr>
InChI=1S/C3H6BrCl/c4-2-1-3-5/h1-3H2

> <InChI Key_QSARr>
MFESCIUQSIBMSM-UHFFFAOYSA-N

> <Salt_Solvent>


> <Salt_Solvent_ID>
0

> <Number of connected components>
1

$$$$
Molecule_945
  Mrv2316 01072400032D          

 30 29  0  0  0  0            999 V2000
   10.9475    7.1452    0.0000 C   0  0  0  0  0  0  0  0  0  0  0  0
   11.6620    7.5577    0.0000 C   0  0  0  0  0  0  0  0  0  0  0  0
   11.6620    8.3827    0.0000 C   0  0  0  0  0  0  0  0  0  0  0  0
   12.3765    7.1452    0.0000 C   0  0  0  0  0  0  0  0  0  0  0  0
   13.0909    7.5577    0.0000 C   0  0  0  0  0  0  0  0  0  0  0  0
   13.8054    7.1452    0.0000 C   0  0  0  0  0  0  0  0  0  0  0  0
   14.5199    7.5577    0.0000 C   0  0  0  0  0  0  0  0  0  0  0  0
   14.5199    8.3827    0.0000 C   0  0  0  0  0  0  0  0  0  0  0  0
   15.2343    7.1452    0.0000 C   0  0  0  0  0  0  0  0  0  0  0  0
   15.9488    7.5577    0.0000 C   0  0  0  0  0  0  0  0  0  0  0  0
   16.6633    7.1452    0.0000 C   0  0  0  0  0  0  0  0  0  0  0  0
   17.3778    7.5577    0.0000 C   0  0  0  0  0  0  0  0  0  0  0  0
   17.3778    8.3827    0.0000 C   0  0  0  0  0  0  0  0  0  0  0  0
   18.0922    7.1452    0.0000 C   0  0  0  0  0  0  0  0  0  0  0  0
   18.8067    7.5577    0.0000 C   0  0  0  0  0  0  0  0  0  0  0  0
   19.5212    7.1452    0.0000 C   0  0  0  0  0  0  0  0  0  0  0  0
   20.2356    7.5577    0.0000 C   0  0  0  0  0  0  0  0  0  0  0  0
   20.9501    7.1452    0.0000 C   0  0  0  0  0  0  0  0  0  0  0  0
   20.9501    6.3202    0.0000 C   0  0  0  0  0  0  0  0  0  0  0  0
   21.6646    7.5577    0.0000 C   0  0  0  0  0  0  0  0  0  0  0  0
   22.3790    7.1452    0.0000 C   0  0  0  0  0  0  0  0  0  0  0  0
   23.0935    7.5577    0.0000 C   0  0  0  0  0  0  0  0  0  0  0  0
   23.8080    7.1452    0.0000 C   0  0  0  0  0  0  0  0  0  0  0  0
   23.8080    6.3202    0.0000 C   0  0  0  0  0  0  0  0  0  0  0  0
   24.5225    7.5577    0.0000 C   0  0  0  0  0  0  0  0  0  0  0  0
   25.2369    7.1452    0.0000 C   0  0  0  0  0  0  0  0  0  0  0  0
   25.9514    7.5577    0.0000 C   0  0  0  0  0  0  0  0  0  0  0  0
   26.6659    7.1452    0.0000 C   0  0  0  0  0  0  0  0  0  0  0  0
   27.3803    7.5577    0.0000 C   0  0  0  0  0  0  0  0  0  0  0  0
   26.6659    6.3202    0.0000 C   0  0  0  0  0  0  0  0  0  0  0  0
  1  2  1  0  0  0  0
  2  3  1  0  0  0  0
  2  4  1  0  0  0  0
  4  5  1  0  0  0  0
  5  6  1  0  0  0  0
  6  7  1  0  0  0  0
  7  8  1  0  0  0  0
  7  9  1  0  0  0  0
  9 10  1  0  0  0  0
 10 11  1  0  0  0  0
 11 12  1  0  0  0  0
 12 13  1  0  0  0  0
 12 14  1  0  0  0  0
 14 15  1  0  0  0  0
 15 16  1  0  0  0  0
 16 17  1  0  0  0  0
 17 18  1  0  0  0  0
 18 19  1  0  0  0  0
 18 20  1  0  0  0  0
 20 21  1  0  0  0  0
 21 22  1  0  0  0  0
 22 23  1  0  0  0  0
 23 24  1  0  0  0  0
 23 25  1  0  0  0  0
 25 26  1  0  0  0  0
 26 27  1  0  0  0  0
 27 28  1  0  0  0  0
 28 29  1  0  0  0  0
 28 30  1  0  0  0  0
M  END
> <RowID>
945

> <Original_SMILES>
CC(C)CCCC(C)CCCC(C)CCCCC(C)CCCC(C)CCCC(C)C

> <Canonical_QSARr>
CC(C)CCCC(C)CCCC(C)CCCCC(C)CCCC(C)CCCC(C)C

> <InChI_Code_QSARr>
InChI=1S/C30H62/c1-25(2)15-11-19-29(7)23-13-21-27(5)17-9-10-18-28(6)22-14-24-30(8)20-12-16-26(3)4/h25-30H,9-24H2,1-8H3

> <InChI Key_QSARr>
PRAKJMSDJKAYCZ-UHFFFAOYSA-N

> <Salt_Solvent>


> <Salt_Solvent_ID>
0

> <Number of connected components>
1

$$$$
Molecule_947
  Mrv2316 01072400032D          

 21 23  0  0  0  0            999 V2000
    0.3062   -3.5946    0.0000 C   0  0  0  0  0  0  0  0  0  0  0  0
    1.0207   -3.1821    0.0000 C   0  0  0  0  0  0  0  0  0  0  0  0
    1.7351   -3.5946    0.0000 C   0  0  0  0  0  0  0  0  0  0  0  0
    2.4496   -3.1821    0.0000 C   0  0  0  0  0  0  0  0  0  0  0  0
    2.4496   -2.3571    0.0000 C   0  0  0  0  0  0  0  0  0  0  0  0
    1.7351   -1.9446    0.0000 C   0  0  0  0  0  0  0  0  0  0  0  0
    1.7351   -1.1196    0.0000 C   0  0  0  0  0  0  0  0  0  0  0  0
    2.4496   -0.7071    0.0000 C   0  0  0  0  0  0  0  0  0  0  0  0
    3.1641   -1.1196    0.0000 C   0  0  0  0  0  0  0  0  0  0  0  0
    3.8786   -0.7071    0.0000 C   0  0  0  0  0  0  0  0  0  0  0  0
    3.8786    0.1179    0.0000 C   0  0  0  0  0  0  0  0  0  0  0  0
    3.1641    0.5304    0.0000 C   0  0  0  0  0  0  0  0  0  0  0  0
    2.4496    0.1179    0.0000 C   0  0  0  0  0  0  0  0  0  0  0  0
    1.0207   -2.3571    0.0000 C   0  0  0  0  0  0  0  0  0  0  0  0
    0.3062   -1.9446    0.0000 C   0  0  0  0  0  0  0  0  0  0  0  0
   -0.4083   -2.3571    0.0000 C   0  0  0  0  0  0  0  0  0  0  0  0
   -1.1227   -1.9446    0.0000 C   0  0  0  0  0  0  0  0  0  0  0  0
   -1.8372   -2.3571    0.0000 C   0  0  0  0  0  0  0  0  0  0  0  0
   -1.8372   -3.1821    0.0000 C   0  0  0  0  0  0  0  0  0  0  0  0
   -1.1227   -3.5946    0.0000 C   0  0  0  0  0  0  0  0  0  0  0  0
   -0.4083   -3.1821    0.0000 C   0  0  0  0  0  0  0  0  0  0  0  0
  1  2  1  0  0  0  0
  3  2  1  0  0  0  0
  4  3  2  0  0  0  0
  5  4  1  0  0  0  0
  6  5  2  0  0  0  0
  6  7  1  0  0  0  0
  7  8  1  0  0  0  0
  9  8  1  0  0  0  0
 10  9  2  0  0  0  0
 11 10  1  0  0  0  0
 12 11  2  0  0  0  0
 13 12  1  0  0  0  0
  8 13  2  0  0  0  0
 14  6  1  0  0  0  0
  2 14  2  0  0  0  0
 14 15  1  0  0  0  0
 15 16  1  0  0  0  0
 17 16  1  0  0  0  0
 18 17  2  0  0  0  0
 19 18  1  0  0  0  0
 20 19  2  0  0  0  0
 21 20  1  0  0  0  0
 16 21  2  0  0  0  0
M  END
> <RowID>
947

> <Original_SMILES>
CC1C=CC=C(CC2C=CC=CC=2)C=1CC1C=CC=CC=1

> <Canonical_QSARr>
CC1C=CC=C(CC2C=CC=CC=2)C=1CC1C=CC=CC=1

> <InChI_Code_QSARr>
InChI=1S/C21H20/c1-17-9-8-14-20(15-18-10-4-2-5-11-18)21(17)16-19-12-6-3-7-13-19/h2-14H,15-16H2,1H3

> <InChI Key_QSARr>
PKQYSCBUFZOAPE-UHFFFAOYSA-N

> <Salt_Solvent>


> <Salt_Solvent_ID>
0

> <Number of connected components>
1

$$$$
Molecule_948
  Mrv2316 01072400032D          

 11 10  0  0  0  0            999 V2000
    2.2836   -2.1434    0.0000 C   0  0  0  0  0  0  0  0  0  0  0  0
    2.9980   -2.5559    0.0000 C   0  0  0  0  0  0  0  0  0  0  0  0
    3.7125   -2.1434    0.0000 C   0  0  0  0  0  0  0  0  0  0  0  0
    4.4270   -2.5559    0.0000 C   0  0  0  0  0  0  0  0  0  0  0  0
    5.1414   -2.1434    0.0000 N   0  0  0  0  0  0  0  0  0  0  0  0
    5.8559   -2.5559    0.0000 C   0  0  0  0  0  0  0  0  0  0  0  0
    5.8559   -3.3809    0.0000 O   0  0  0  0  0  0  0  0  0  0  0  0
    6.5704   -2.1434    0.0000 O   0  0  0  0  0  0  0  0  0  0  0  0
    7.2849   -2.5559    0.0000 C   0  0  0  0  0  0  0  0  0  0  0  0
    7.9993   -2.1434    0.0000 C   0  0  0  0  0  0  0  0  0  0  0  0
    8.7138   -1.7309    0.0000 C   0  0  0  0  0  0  0  0  0  0  0  0
  1  2  1  0  0  0  0
  2  3  1  0  0  0  0
  3  4  1  0  0  0  0
  4  5  1  0  0  0  0
  5  6  1  0  0  0  0
  6  7  2  0  0  0  0
  6  8  1  0  0  0  0
  8  9  1  0  0  0  0
  9 10  1  0  0  0  0
 10 11  3  0  0  0  0
M  END
> <RowID>
948

> <Original_SMILES>
CCCCNC(=O)OCC#C

> <Canonical_QSARr>
CCCCNC(=O)OCC#C

> <InChI_Code_QSARr>
InChI=1S/C8H13NO2/c1-3-5-6-9-8(10)11-7-4-2/h2H,3,5-7H2,1H3,(H,9,10)

> <InChI Key_QSARr>
JTDBXHIIVZZXDH-UHFFFAOYSA-N

> <Salt_Solvent>


> <Salt_Solvent_ID>
0

> <Number of connected components>
1

$$$$
Molecule_950
  Mrv2316 01072400032D          

 15 16  0  0  0  0            999 V2000
    5.0013   -5.3625    0.0000 Cl  0  0  0  0  0  0  0  0  0  0  0  0
    4.2868   -4.9500    0.0000 C   0  0  0  0  0  0  0  0  0  0  0  0
    4.2868   -4.1250    0.0000 C   0  0  0  0  0  0  0  0  0  0  0  0
    3.5724   -3.7125    0.0000 C   0  0  0  0  0  0  0  0  0  0  0  0
    3.5724   -2.8875    0.0000 O   0  0  0  0  0  0  0  0  0  0  0  0
    2.8579   -2.4750    0.0000 C   0  0  0  0  0  0  0  0  0  0  0  0
    2.8579   -1.6500    0.0000 C   0  0  0  0  0  0  0  0  0  0  0  0
    2.1434   -1.2375    0.0000 C   0  0  0  0  0  0  0  0  0  0  0  0
    1.4289   -1.6500    0.0000 C   0  0  0  0  0  0  0  0  0  0  0  0
    0.7145   -1.2375    0.0000 Cl  0  0  0  0  0  0  0  0  0  0  0  0
    1.4289   -2.4750    0.0000 C   0  0  0  0  0  0  0  0  0  0  0  0
    2.1434   -2.8875    0.0000 C   0  0  0  0  0  0  0  0  0  0  0  0
    2.8579   -4.1250    0.0000 C   0  0  0  0  0  0  0  0  0  0  0  0
    2.8579   -4.9500    0.0000 C   0  0  0  0  0  0  0  0  0  0  0  0
    3.5724   -5.3625    0.0000 C   0  0  0  0  0  0  0  0  0  0  0  0
  1  2  1  0  0  0  0
  3  2  1  0  0  0  0
  4  3  2  0  0  0  0
  4  5  1  0  0  0  0
  5  6  1  0  0  0  0
  7  6  1  0  0  0  0
  8  7  2  0  0  0  0
  9  8  1  0  0  0  0
  9 10  1  0  0  0  0
 11  9  2  0  0  0  0
 12 11  1  0  0  0  0
  6 12  2  0  0  0  0
 13  4  1  0  0  0  0
 14 13  2  0  0  0  0
 15 14  1  0  0  0  0
  2 15  2  0  0  0  0
M  END
> <RowID>
950

> <Original_SMILES>
ClC1C=C(C=CC=1)OC1C=CC(Cl)=CC=1

> <Canonical_QSARr>
ClC1C=C(C=CC=1)OC1C=CC(Cl)=CC=1

> <InChI_Code_QSARr>
InChI=1S/C12H8Cl2O/c13-9-4-6-11(7-5-9)15-12-3-1-2-10(14)8-12/h1-8H

> <InChI Key_QSARr>
HPRGYUWRGCTBAV-UHFFFAOYSA-N

> <Salt_Solvent>


> <Salt_Solvent_ID>
0

> <Number of connected components>
1

$$$$
Molecule_951
  Mrv2316 01072400032D          

 14 15  0  0  0  0            999 V2000
   -0.1021    9.2411    0.0000 Cl  0  0  0  0  0  0  0  0  0  0  0  0
   -0.1021    8.4161    0.0000 C   0  0  0  0  0  0  0  0  0  0  0  0
   -0.8165    8.0036    0.0000 C   0  0  0  0  0  0  0  0  0  0  0  0
   -0.8165    7.1786    0.0000 C   0  0  0  0  0  0  0  0  0  0  0  0
   -0.1021    6.7661    0.0000 C   0  0  0  0  0  0  0  0  0  0  0  0
   -0.1021    5.9411    0.0000 C   0  0  0  0  0  0  0  0  0  0  0  0
   -0.8165    5.5286    0.0000 N   0  0  0  0  0  0  0  0  0  0  0  0
   -0.8165    4.7036    0.0000 C   0  0  0  0  0  0  0  0  0  0  0  0
   -1.4840    4.2187    0.0000 C   0  0  0  0  0  0  0  0  0  0  0  0
   -1.2290    3.4341    0.0000 C   0  0  0  0  0  0  0  0  0  0  0  0
   -0.4040    3.4341    0.0000 C   0  0  0  0  0  0  0  0  0  0  0  0
   -0.1491    4.2187    0.0000 C   0  0  0  0  0  0  0  0  0  0  0  0
    0.6124    7.1786    0.0000 C   0  0  0  0  0  0  0  0  0  0  0  0
    0.6124    8.0036    0.0000 C   0  0  0  0  0  0  0  0  0  0  0  0
  1  2  1  0  0  0  0
  3  2  2  0  0  0  0
  4  3  1  0  0  0  0
  5  4  2  0  0  0  0
  5  6  1  0  0  0  0
  6  7  1  0  0  0  0
  7  8  1  0  0  0  0
  9  8  1  0  0  0  0
 10  9  1  0  0  0  0
 11 10  1  0  0  0  0
 12 11  1  0  0  0  0
  8 12  1  0  0  0  0
 13  5  1  0  0  0  0
 14 13  2  0  0  0  0
  2 14  1  0  0  0  0
M  END
> <RowID>
951

> <Original_SMILES>
ClC1=CC=C(CNC2CCCC2)C=C1

> <Canonical_QSARr>
ClC1=CC=C(CNC2CCCC2)C=C1

> <InChI_Code_QSARr>
InChI=1S/C12H16ClN/c13-11-7-5-10(6-8-11)9-14-12-3-1-2-4-12/h5-8,12,14H,1-4,9H2

> <InChI Key_QSARr>
XIXHUNCZQIRQOG-UHFFFAOYSA-N

> <Salt_Solvent>


> <Salt_Solvent_ID>
0

> <Number of connected components>
1

$$$$
Molecule_952
  Mrv2316 01072400032D          

 12 13  0  0  0  0            999 V2000
    1.0512    2.5567    0.0000 C   0  0  0  0  0  0  0  0  0  0  0  0
    1.2348    1.7524    0.0000 C   0  0  0  0  0  0  0  0  0  0  0  0
    2.0391    1.5688    0.0000 C   0  0  0  0  0  0  0  0  0  0  0  0
    2.3971    0.8255    0.0000 C   0  0  0  0  0  0  0  0  0  0  0  0
    2.0391    0.0822    0.0000 C   0  0  0  0  0  0  0  0  0  0  0  0
    1.2348   -0.1014    0.0000 C   0  0  0  0  0  0  0  0  0  0  0  0
    1.0512   -0.9057    0.0000 C   0  0  0  0  0  0  0  0  0  0  0  0
    0.5898    0.4130    0.0000 C   0  0  0  0  0  0  0  0  0  0  0  0
    0.5898    1.2380    0.0000 C   0  0  0  0  0  0  0  0  0  0  0  0
    1.0031    0.8255    0.0000 C   0  0  0  0  0  0  0  0  0  0  0  0
    0.1781    0.8255    0.0000 N   0  0  0  0  0  0  0  0  0  0  0  0
   -0.2344    0.1110    0.0000 O   0  0  0  0  0  0  0  0  0  0  0  0
  1  2  1  0  0  0  0
  3  2  1  0  0  0  0
  4  3  1  0  0  0  0
  5  4  1  0  0  0  0
  6  5  1  0  0  0  0
  6  7  1  0  0  0  0
  6  8  1  0  0  0  0
  8  9  1  0  0  0  0
  9  2  1  0  0  0  0
 10  6  1  0  0  0  0
  2 10  1  0  0  0  0
 10 11  2  0  0  0  0
 11 12  1  0  0  0  0
M  END
> <RowID>
952

> <Original_SMILES>
CC12CCCC(C)(CC1)C2=NO

> <Canonical_QSARr>
CC12CCCC(C)(CC1)C2=NO

> <InChI_Code_QSARr>
InChI=1S/C10H17NO/c1-9-4-3-5-10(2,7-6-9)8(9)11-12/h12H,3-7H2,1-2H3

> <InChI Key_QSARr>
RADAAKRXEPVXBU-UHFFFAOYSA-N

> <Salt_Solvent>


> <Salt_Solvent_ID>
0

> <Number of connected components>
1

$$$$
Molecule_953
  Mrv2316 01072400032D          

 66 72  0  0  0  0            999 V2000
    0.4331    2.9998    0.0000 C   0  0  0  0  0  0  0  0  0  0  0  0
   -0.2813    2.5873    0.0000 C   0  0  0  0  0  0  0  0  0  0  0  0
   -0.9958    2.9998    0.0000 C   0  0  0  0  0  0  0  0  0  0  0  0
   -1.7103    2.5873    0.0000 C   0  0  0  0  0  0  0  0  0  0  0  0
   -2.4247    2.9998    0.0000 N   0  0  0  0  0  0  0  0  0  0  0  0
   -3.1392    2.5873    0.0000 C   0  0  0  0  0  0  0  0  0  0  0  0
   -3.1392    1.7623    0.0000 O   0  0  0  0  0  0  0  0  0  0  0  0
   -3.8537    2.9998    0.0000 C   0  0  0  0  0  0  0  0  0  0  0  0
   -4.5681    2.5873    0.0000 C   0  0  0  0  0  0  0  0  0  0  0  0
   -5.2826    2.9998    0.0000 C   0  0  0  0  0  0  0  0  0  0  0  0
   -5.9971    2.5873    0.0000 C   0  0  0  0  0  0  0  0  0  0  0  0
   -6.7116    2.9998    0.0000 C   0  0  0  0  0  0  0  0  0  0  0  0
   -6.7116    3.8248    0.0000 C   0  0  0  0  0  0  0  0  0  0  0  0
   -5.9971    4.2373    0.0000 C   0  0  0  0  0  0  0  0  0  0  0  0
   -5.2826    3.8248    0.0000 C   0  0  0  0  0  0  0  0  0  0  0  0
   -4.5681    4.2373    0.0000 C   0  0  0  0  0  0  0  0  0  0  0  0
   -4.5681    5.0623    0.0000 N   0  0  0  0  0  0  0  0  0  0  0  0
   -3.8537    5.4748    0.0000 N   0  0  0  0  0  0  0  0  0  0  0  0
   -3.8537    6.2998    0.0000 C   0  0  0  0  0  0  0  0  0  0  0  0
   -3.1392    6.7123    0.0000 C   0  0  0  0  0  0  0  0  0  0  0  0
   -3.1392    7.5373    0.0000 C   0  0  0  0  0  0  0  0  0  0  0  0
   -2.4247    7.9498    0.0000 C   0  0  0  0  0  0  0  0  0  0  0  0
   -1.7103    7.5373    0.0000 O   0  0  0  0  0  0  0  0  0  0  0  0
   -2.4247    8.7748    0.0000 O   0  0  0  0  0  0  0  0  0  0  0  0
   -3.1392    9.1873    0.0000 C   0  0  0  0  0  0  0  0  0  0  0  0
   -3.8537    8.7748    0.0000 C   0  0  0  0  0  0  0  0  0  0  0  0
   -4.5681    9.1873    0.0000 Cl  0  0  0  0  0  0  0  0  0  0  0  0
   -3.8537    7.9498    0.0000 C   0  0  0  0  0  0  0  0  0  0  0  0
   -4.5681    7.5373    0.0000 C   0  0  0  0  0  0  0  0  0  0  0  0
   -4.5681    6.7123    0.0000 C   0  0  0  0  0  0  0  0  0  0  0  0
   -5.2826    6.2998    0.0000 C   0  0  0  0  0  0  0  0  0  0  0  0
   -3.8537    3.8248    0.0000 C   0  0  0  0  0  0  0  0  0  0  0  0
   -3.1392    4.2373    0.0000 O   0  0  0  0  0  0  0  0  0  0  0  0
   -1.7103    1.7623    0.0000 C   0  0  0  0  0  0  0  0  0  0  0  0
   -2.4247    1.3498    0.0000 C   0  0  0  0  0  0  0  0  0  0  0  0
   -0.9958    1.3498    0.0000 C   0  0  0  0  0  0  0  0  0  0  0  0
   -0.2813    1.7623    0.0000 C   0  0  0  0  0  0  0  0  0  0  0  0
    0.4331    1.3498    0.0000 N   0  0  0  0  0  0  0  0  0  0  0  0
    0.4331    0.5248    0.0000 C   0  0  0  0  0  0  0  0  0  0  0  0
   -0.2813    0.1123    0.0000 O   0  0  0  0  0  0  0  0  0  0  0  0
    1.1476    0.1123    0.0000 C   0  0  0  0  0  0  0  0  0  0  0  0
    1.8621    0.5248    0.0000 C   0  0  0  0  0  0  0  0  0  0  0  0
    2.5766    0.1123    0.0000 C   0  0  0  0  0  0  0  0  0  0  0  0
    3.2910    0.5248    0.0000 C   0  0  0  0  0  0  0  0  0  0  0  0
    4.0055    0.1123    0.0000 C   0  0  0  0  0  0  0  0  0  0  0  0
    4.0055   -0.7127    0.0000 C   0  0  0  0  0  0  0  0  0  0  0  0
    3.2910   -1.1252    0.0000 C   0  0  0  0  0  0  0  0  0  0  0  0
    2.5766   -0.7127    0.0000 C   0  0  0  0  0  0  0  0  0  0  0  0
    1.8621   -1.1252    0.0000 C   0  0  0  0  0  0  0  0  0  0  0  0
    1.8621   -1.9502    0.0000 N   0  0  0  0  0  0  0  0  0  0  0  0
    1.1476   -2.3627    0.0000 N   0  0  0  0  0  0  0  0  0  0  0  0
    1.1476   -3.1877    0.0000 C   0  0  0  0  0  0  0  0  0  0  0  0
    0.4331   -3.6002    0.0000 C   0  0  0  0  0  0  0  0  0  0  0  0
    0.4331   -4.4252    0.0000 C   0  0  0  0  0  0  0  0  0  0  0  0
   -0.2813   -4.8377    0.0000 C   0  0  0  0  0  0  0  0  0  0  0  0
   -0.2813   -5.6627    0.0000 O   0  0  0  0  0  0  0  0  0  0  0  0
   -0.9958   -4.4252    0.0000 O   0  0  0  0  0  0  0  0  0  0  0  0
   -1.7103   -4.8377    0.0000 C   0  0  0  0  0  0  0  0  0  0  0  0
   -1.7103   -5.6627    0.0000 C   0  0  0  0  0  0  0  0  0  0  0  0
   -0.9958   -6.0752    0.0000 Cl  0  0  0  0  0  0  0  0  0  0  0  0
    1.1476   -4.8377    0.0000 C   0  0  0  0  0  0  0  0  0  0  0  0
    1.8621   -4.4252    0.0000 C   0  0  0  0  0  0  0  0  0  0  0  0
    1.8621   -3.6002    0.0000 C   0  0  0  0  0  0  0  0  0  0  0  0
    2.5766   -3.1877    0.0000 C   0  0  0  0  0  0  0  0  0  0  0  0
    1.1476   -0.7127    0.0000 C   0  0  0  0  0  0  0  0  0  0  0  0
    0.4331   -1.1252    0.0000 O   0  0  0  0  0  0  0  0  0  0  0  0
  1  2  1  0  0  0  0
  3  2  2  0  0  0  0
  4  3  1  0  0  0  0
  4  5  1  0  0  0  0
  5  6  1  0  0  0  0
  6  7  2  0  0  0  0
  6  8  1  0  0  0  0
  9  8  2  0  0  0  0
 10  9  1  0  0  0  0
 10 11  1  0  0  0  0
 11 12  2  0  0  0  0
 12 13  1  0  0  0  0
 13 14  2  0  0  0  0
 14 15  1  0  0  0  0
 15 10  2  0  0  0  0
 16 15  1  0  0  0  0
 17 16  1  4  0  0  0
 17 18  2  0  0  0  0
 18 19  1  0  0  0  0
 20 19  1  0  0  0  0
 21 20  2  0  0  0  0
 21 22  1  0  0  0  0
 22 23  2  0  0  0  0
 22 24  1  0  0  0  0
 24 25  1  0  0  0  0
 25 26  1  0  0  0  0
 26 27  1  0  0  0  0
 28 21  1  0  0  0  0
 29 28  2  0  0  0  0
 30 29  1  0  0  0  0
 19 30  2  0  0  0  0
 30 31  1  0  0  0  0
 32 16  2  0  0  0  0
  8 32  1  0  0  0  0
 32 33  1  0  0  0  0
 34  4  2  0  0  0  0
 34 35  1  0  0  0  0
 36 34  1  0  0  0  0
 37 36  2  0  0  0  0
  2 37  1  0  0  0  0
 37 38  1  0  0  0  0
 38 39  1  0  0  0  0
 39 40  2  0  0  0  0
 39 41  1  0  0  0  0
 42 41  2  0  0  0  0
 43 42  1  0  0  0  0
 43 44  1  0  0  0  0
 44 45  2  0  0  0  0
 45 46  1  0  0  0  0
 46 47  2  0  0  0  0
 47 48  1  0  0  0  0
 48 43  2  0  0  0  0
 49 48  1  0  0  0  0
 50 49  1  4  0  0  0
 50 51  2  0  0  0  0
 51 52  1  0  0  0  0
 53 52  1  0  0  0  0
 54 53  2  0  0  0  0
 54 55  1  0  0  0  0
 55 56  2  0  0  0  0
 55 57  1  0  0  0  0
 57 58  1  0  0  0  0
 58 59  1  0  0  0  0
 59 60  1  0  0  0  0
 61 54  1  0  0  0  0
 62 61  2  0  0  0  0
 63 62  1  0  0  0  0
 52 63  2  0  0  0  0
 63 64  1  0  0  0  0
 65 49  2  0  0  0  0
 41 65  1  0  0  0  0
 65 66  1  0  0  0  0
M  END
> <RowID>
953

> <Original_SMILES>
CC1=CC(NC(=O)C2=CC3C=CC=CC=3C(N=NC3C=C(C=CC=3C)C(=O)OCCCl)=C2O)=C(C)C=C1NC(=O)C1=CC2C=CC=CC=2C(N=NC2C=C(C=CC=2C)C(=O)OCCCl)=C1O

> <Canonical_QSARr>
CC1=CC(NC(=O)C2=CC3C=CC=CC=3C(N=NC3C=C(C=CC=3C)C(=O)OCCCl)=C2O)=C(C)C=C1NC(=O)C1=CC2C=CC=CC=2C(N=NC2C=C(C=CC=2C)C(=O)OCCCl)=C1O

> <InChI_Code_QSARr>
InChI=1S/C50H42Cl2N6O8/c1-27-13-15-33(49(63)65-19-17-51)25-41(27)55-57-43-35-11-7-5-9-31(35)23-37(45(43)59)47(61)53-39-21-30(4)40(22-29(39)3)54-48(62)38-24-32-10-6-8-12-36(32)44(46(38)60)58-56-42-26-34(16-14-28(42)2)50(64)66-20-18-52/h5-16,21-26,59-60H,17-20H2,1-4H3,(H,53,61)(H,54,62)

> <InChI Key_QSARr>
VISHVOOFNOAMFD-UHFFFAOYSA-N

> <Salt_Solvent>


> <Salt_Solvent_ID>
0

> <Number of connected components>
1

$$$$
Molecule_954
  Mrv2316 01072400032D          

 21 23  0  0  0  0            999 V2000
   -0.7145   -3.7125    0.0000 C   0  0  0  0  0  0  0  0  0  0  0  0
   -0.7145   -2.8875    0.0000 C   0  0  0  0  0  0  0  0  0  0  0  0
   -0.0000   -2.4750    0.0000 O   0  0  0  0  0  0  0  0  0  0  0  0
   -0.0000   -1.6500    0.0000 C   0  0  0  0  0  0  0  0  0  0  0  0
   -0.7145   -1.2375    0.0000 O   0  0  0  0  0  0  0  0  0  0  0  0
    0.7145   -1.2375    0.0000 C   0  0  0  0  0  0  0  0  0  0  0  0
    0.7145   -0.4125    0.0000 C   0  0  0  0  0  0  0  0  0  0  0  0
    1.4289    0.0000    0.0000 N   0  0  0  0  0  0  0  0  0  0  0  0
    1.4289    0.8250    0.0000 C   0  0  0  0  0  0  0  0  0  0  0  0
    1.8414    1.5395    0.0000 C   0  0  0  0  0  0  0  0  0  0  0  0
    1.0164    1.5395    0.0000 C   0  0  0  0  0  0  0  0  0  0  0  0
    2.1434   -0.4125    0.0000 C   0  0  0  0  0  0  0  0  0  0  0  0
    2.8579    0.0000    0.0000 C   0  0  0  0  0  0  0  0  0  0  0  0
    3.5723   -0.4125    0.0000 C   0  0  0  0  0  0  0  0  0  0  0  0
    4.2868    0.0000    0.0000 F   0  0  0  0  0  0  0  0  0  0  0  0
    3.5723   -1.2375    0.0000 C   0  0  0  0  0  0  0  0  0  0  0  0
    4.2868   -1.6500    0.0000 F   0  0  0  0  0  0  0  0  0  0  0  0
    2.8579   -1.6500    0.0000 C   0  0  0  0  0  0  0  0  0  0  0  0
    2.1434   -1.2375    0.0000 C   0  0  0  0  0  0  0  0  0  0  0  0
    1.4289   -1.6500    0.0000 C   0  0  0  0  0  0  0  0  0  0  0  0
    1.4289   -2.4750    0.0000 O   0  0  0  0  0  0  0  0  0  0  0  0
  1  2  1  0  0  0  0
  2  3  1  0  0  0  0
  3  4  1  0  0  0  0
  4  5  2  0  0  0  0
  4  6  1  0  0  0  0
  7  6  2  0  0  0  0
  8  7  1  0  0  0  0
  8  9  1  0  0  0  0
 10  9  1  0  0  0  0
 11 10  1  0  0  0  0
  9 11  1  0  0  0  0
 12  8  1  0  0  0  0
 12 13  2  0  0  0  0
 13 14  1  0  0  0  0
 14 15  1  0  0  0  0
 14 16  2  0  0  0  0
 16 17  1  0  0  0  0
 16 18  1  0  0  0  0
 18 19  2  0  0  0  0
 19 12  1  0  0  0  0
 20 19  1  0  0  0  0
  6 20  1  0  0  0  0
 20 21  2  0  0  0  0
M  END
> <RowID>
954

> <Original_SMILES>
CCOC(=O)C1=CN(C2CC2)C2=CC(F)=C(F)C=C2C1=O

> <Canonical_QSARr>
CCOC(=O)C1=CN(C2CC2)C2=CC(F)=C(F)C=C2C1=O

> <InChI_Code_QSARr>
InChI=1S/C15H13F2NO3/c1-2-21-15(20)10-7-18(8-3-4-8)13-6-12(17)11(16)5-9(13)14(10)19/h5-8H,2-4H2,1H3

> <InChI Key_QSARr>
QYGNYHKBMNUIJN-UHFFFAOYSA-N

> <Salt_Solvent>


> <Salt_Solvent_ID>
0

> <Number of connected components>
1

$$$$
Molecule_955
  Mrv2316 01072400032D          

 11 11  0  0  0  0            999 V2000
    4.5375    2.3135    0.0000 C   0  0  0  0  0  0  0  0  0  0  0  0
    5.2520    1.9010    0.0000 C   0  0  0  0  0  0  0  0  0  0  0  0
    5.9665    2.3135    0.0000 C   0  0  0  0  0  0  0  0  0  0  0  0
    6.6809    1.9010    0.0000 C   0  0  0  0  0  0  0  0  0  0  0  0
    7.3954    2.3135    0.0000 C   0  0  0  0  0  0  0  0  0  0  0  0
    8.1099    1.9010    0.0000 C   0  0  0  0  0  0  0  0  0  0  0  0
    8.8243    2.3135    0.0000 C   0  0  0  0  0  0  0  0  0  0  0  0
    9.5388    1.9010    0.0000 C   0  0  0  0  0  0  0  0  0  0  0  0
   10.2533    2.3135    0.0000 C   0  0  0  0  0  0  0  0  0  0  0  0
   11.0783    2.3135    0.0000 C   0  0  0  0  0  0  0  0  0  0  0  0
   10.6658    3.0280    0.0000 O   0  0  0  0  0  0  0  0  0  0  0  0
  1  2  1  0  0  0  0
  2  3  1  0  0  0  0
  3  4  1  0  0  0  0
  4  5  1  0  0  0  0
  5  6  1  0  0  0  0
  6  7  1  0  0  0  0
  7  8  1  0  0  0  0
  8  9  1  0  0  0  0
 10  9  1  0  0  0  0
 11 10  1  0  0  0  0
  9 11  1  0  0  0  0
M  END
> <RowID>
955

> <Original_SMILES>
CCCCCCCCC1CO1

> <Canonical_QSARr>
CCCCCCCCC1CO1

> <InChI_Code_QSARr>
InChI=1S/C10H20O/c1-2-3-4-5-6-7-8-10-9-11-10/h10H,2-9H2,1H3

> <InChI Key_QSARr>
AAMHBRRZYSORSH-UHFFFAOYSA-N

> <Salt_Solvent>


> <Salt_Solvent_ID>
0

> <Number of connected components>
1

$$$$
Molecule_956
  Mrv2316 01072400032D          

 12 12  0  0  0  0            999 V2000
    0.4763   -1.2375    0.0000 O   0  0  0  0  0  0  0  0  0  0  0  0
    0.4763   -0.4125    0.0000 C   0  0  0  0  0  0  0  0  0  0  0  0
    1.1908    0.0000    0.0000 C   0  0  0  0  0  0  0  0  0  0  0  0
    1.9053   -0.4125    0.0000 C   0  0  0  0  0  0  0  0  0  0  0  0
    1.1908    0.8250    0.0000 C   0  0  0  0  0  0  0  0  0  0  0  0
    1.9053    1.2375    0.0000 O   0  0  0  0  0  0  0  0  0  0  0  0
    0.4763    1.2375    0.0000 C   0  0  0  0  0  0  0  0  0  0  0  0
    1.0066    1.8695    0.0000 C   0  0  0  0  0  0  0  0  0  0  0  0
   -0.0540    1.8695    0.0000 C   0  0  0  0  0  0  0  0  0  0  0  0
   -0.2382    0.8250    0.0000 C   0  0  0  0  0  0  0  0  0  0  0  0
   -0.2382    0.0000    0.0000 C   0  0  0  0  0  0  0  0  0  0  0  0
   -0.9526   -0.4125    0.0000 O   0  0  0  0  0  0  0  0  0  0  0  0
  1  2  1  0  0  0  0
  3  2  2  0  0  0  0
  3  4  1  0  0  0  0
  5  3  1  0  0  0  0
  5  6  2  0  0  0  0
  7  5  1  0  0  0  0
  7  8  1  0  0  0  0
  7  9  1  0  0  0  0
 10  7  1  0  0  0  0
 11 10  1  0  0  0  0
  2 11  1  0  0  0  0
 11 12  1  0  0  0  0
M  END
> <RowID>
956

> <Original_SMILES>
[Na+].CC1C(=O)C(C)(C)CC(O)C=1[O-]

> <Canonical_QSARr>
CC1C(=O)C(C)(C)CC(O)C=1O

> <InChI_Code_QSARr>
InChI=1S/C9H14O3/c1-5-7(11)6(10)4-9(2,3)8(5)12/h6,10-11H,4H2,1-3H3

> <InChI Key_QSARr>
ZAIXIPVUFNBFOH-UHFFFAOYSA-N

> <Salt_Solvent>
[Na+]

> <Salt_Solvent_ID>
110

> <Number of connected components>
2

$$$$
Molecule_957
  Mrv2316 01072400032D          

 16 16  0  0  0  0            999 V2000
   -0.7145   -1.9594    0.0000 C   0  0  0  0  0  0  0  0  0  0  0  0
    0.0000   -1.5469    0.0000 C   0  0  0  0  0  0  0  0  0  0  0  0
    0.7145   -1.9594    0.0000 C   0  0  0  0  0  0  0  0  0  0  0  0
    0.0000   -0.7219    0.0000 C   0  0  0  0  0  0  0  0  0  0  0  0
   -0.7145   -0.3094    0.0000 O   0  0  0  0  0  0  0  0  0  0  0  0
    0.7145   -0.3094    0.0000 N   0  0  0  0  0  0  0  0  0  0  0  0
    0.7145    0.5156    0.0000 C   0  0  0  0  0  0  0  0  0  0  0  0
    1.4289    0.9281    0.0000 C   0  0  0  0  0  0  0  0  0  0  0  0
    1.4289    1.7531    0.0000 C   0  0  0  0  0  0  0  0  0  0  0  0
    0.7145    2.1656    0.0000 C   0  0  0  0  0  0  0  0  0  0  0  0
    0.7145    2.9906    0.0000 S   0  0  0  0  0  0  0  0  0  0  0  0
    0.7145    3.8156    0.0000 N   0  0  0  0  0  0  0  0  0  0  0  0
    1.5395    2.9906    0.0000 O   0  0  0  0  0  0  0  0  0  0  0  0
   -0.1105    2.9906    0.0000 O   0  0  0  0  0  0  0  0  0  0  0  0
    0.0000    1.7531    0.0000 C   0  0  0  0  0  0  0  0  0  0  0  0
    0.0000    0.9281    0.0000 C   0  0  0  0  0  0  0  0  0  0  0  0
  1  2  1  0  0  0  0
  2  3  2  0  0  0  0
  2  4  1  0  0  0  0
  4  5  2  0  0  0  0
  4  6  1  0  0  0  0
  6  7  1  0  0  0  0
  8  7  1  0  0  0  0
  9  8  2  0  0  0  0
 10  9  1  0  0  0  0
 10 11  1  0  0  0  0
 11 12  1  0  0  0  0
 11 13  2  0  0  0  0
 11 14  2  0  0  0  0
 15 10  2  0  0  0  0
 16 15  1  0  0  0  0
  7 16  2  0  0  0  0
M  END
> <RowID>
957

> <Original_SMILES>
CC(=C)C(=O)NC1C=CC(=CC=1)S(N)(=O)=O

> <Canonical_QSARr>
CC(=C)C(=O)NC1C=CC(=CC=1)S(N)(=O)=O

> <InChI_Code_QSARr>
InChI=1S/C10H12N2O3S/c1-7(2)10(13)12-8-3-5-9(6-4-8)16(11,14)15/h3-6H,1H2,2H3,(H,12,13)(H2,11,14,15)

> <InChI Key_QSARr>
NQRAOOGLFRBSHM-UHFFFAOYSA-N

> <Salt_Solvent>


> <Salt_Solvent_ID>
0

> <Number of connected components>
1

$$$$
Molecule_958
  Mrv2316 01072400032D          

 10  9  0  0  0  0            999 V2000
   -0.6039   -2.4750    0.0000 C   0  0  0  0  0  0  0  0  0  0  0  0
    0.1105   -2.0625    0.0000 C   0  0  0  0  0  0  0  0  0  0  0  0
    0.8250   -2.4750    0.0000 C   0  0  0  0  0  0  0  0  0  0  0  0
    0.1105   -1.2375    0.0000 O   0  0  0  0  0  0  0  0  0  0  0  0
    0.8250   -0.8250    0.0000 C   0  0  0  0  0  0  0  0  0  0  0  0
    1.5395   -1.2375    0.0000 O   0  0  0  0  0  0  0  0  0  0  0  0
    0.8250   -0.0000    0.0000 C   0  0  0  0  0  0  0  0  0  0  0  0
    0.8250    0.8250    0.0000 C   0  0  0  0  0  0  0  0  0  0  0  0
    1.6500   -0.0000    0.0000 C   0  0  0  0  0  0  0  0  0  0  0  0
    0.0000   -0.0000    0.0000 Br  0  0  0  0  0  0  0  0  0  0  0  0
  1  2  1  0  0  0  0
  2  3  1  0  0  0  0
  2  4  1  0  0  0  0
  4  5  1  0  0  0  0
  5  6  2  0  0  0  0
  5  7  1  0  0  0  0
  7  8  1  0  0  0  0
  7  9  1  0  0  0  0
  7 10  1  0  0  0  0
M  END
> <RowID>
958

> <Original_SMILES>
CC(C)OC(=O)C(C)(C)Br

> <Canonical_QSARr>
CC(C)OC(=O)C(C)(C)Br

> <InChI_Code_QSARr>
InChI=1S/C7H13BrO2/c1-5(2)10-6(9)7(3,4)8/h5H,1-4H3

> <InChI Key_QSARr>
UNZJYKKJZGIFCG-UHFFFAOYSA-N

> <Salt_Solvent>


> <Salt_Solvent_ID>
0

> <Number of connected components>
1

$$$$
Molecule_959
  Mrv2316 01072400032D          

 18 19  0  0  0  0            999 V2000
    0.0972   -3.2738    0.0000 C   0  0  0  0  0  0  0  0  0  0  0  0
    0.5821   -2.6063    0.0000 O   0  0  0  0  0  0  0  0  0  0  0  0
    0.2465   -1.8526    0.0000 C   0  0  0  0  0  0  0  0  0  0  0  0
   -0.5739   -1.7664    0.0000 O   0  0  0  0  0  0  0  0  0  0  0  0
    0.7315   -1.1852    0.0000 C   0  0  0  0  0  0  0  0  0  0  0  0
    0.4765   -0.4006    0.0000 C   0  0  0  0  0  0  0  0  0  0  0  0
    1.1440    0.0843    0.0000 C   0  0  0  0  0  0  0  0  0  0  0  0
    1.1440    0.9093    0.0000 C   0  0  0  0  0  0  0  0  0  0  0  0
    1.8584    1.3218    0.0000 O   0  0  0  0  0  0  0  0  0  0  0  0
    1.8114   -0.4006    0.0000 N   0  0  0  0  0  0  0  0  0  0  0  0
    1.5565   -1.1852    0.0000 N   0  0  0  0  0  0  0  0  0  0  0  0
    2.0414   -1.8526    0.0000 C   0  0  0  0  0  0  0  0  0  0  0  0
    1.7058   -2.6063    0.0000 N   0  0  0  0  0  0  0  0  0  0  0  0
    2.1907   -3.2738    0.0000 C   0  0  0  0  0  0  0  0  0  0  0  0
    3.0112   -3.1875    0.0000 C   0  0  0  0  0  0  0  0  0  0  0  0
    3.3468   -2.4338    0.0000 C   0  0  0  0  0  0  0  0  0  0  0  0
    2.8619   -1.7664    0.0000 C   0  0  0  0  0  0  0  0  0  0  0  0
    3.1974   -1.0127    0.0000 Cl  0  0  0  0  0  0  0  0  0  0  0  0
  1  2  1  0  0  0  0
  2  3  1  0  0  0  0
  3  4  2  0  0  0  0
  3  5  1  0  0  0  0
  6  5  2  0  0  0  0
  7  6  1  0  0  0  0
  7  8  1  0  0  0  0
  8  9  1  0  0  0  0
 10  7  2  0  0  0  0
 11 10  1  0  0  0  0
  5 11  1  0  0  0  0
 11 12  1  0  0  0  0
 13 12  2  0  0  0  0
 14 13  1  0  0  0  0
 15 14  2  0  0  0  0
 16 15  1  0  0  0  0
 17 16  2  0  0  0  0
 12 17  1  0  0  0  0
 17 18  1  0  0  0  0
M  END
> <RowID>
959

> <Original_SMILES>
COC(=O)C1=CC(CO)=NN1C1=NC=CC=C1Cl

> <Canonical_QSARr>
COC(=O)C1=CC(CO)=NN1C1=NC=CC=C1Cl

> <InChI_Code_QSARr>
InChI=1S/C11H10ClN3O3/c1-18-11(17)9-5-7(6-16)14-15(9)10-8(12)3-2-4-13-10/h2-5,16H,6H2,1H3

> <InChI Key_QSARr>
LIVBOELPEIGMQV-UHFFFAOYSA-N

> <Salt_Solvent>


> <Salt_Solvent_ID>
0

> <Number of connected components>
1

$$$$
Molecule_960
  Mrv2316 01072400032D          

 24 24  0  0  0  0            999 V2000
    1.6159    1.6552    0.0000 F   0  0  0  0  0  0  0  0  0  0  0  0
    1.3338    0.8799    0.0000 C   0  0  0  0  0  0  0  0  0  0  0  0
    2.1462    0.7367    0.0000 F   0  0  0  0  0  0  0  0  0  0  0  0
    0.6193    1.2924    0.0000 C   0  0  0  0  0  0  0  0  0  0  0  0
    1.1496    1.9244    0.0000 F   0  0  0  0  0  0  0  0  0  0  0  0
    0.0890    1.9244    0.0000 C   0  0  0  0  0  0  0  0  0  0  0  0
   -0.4413    2.5564    0.0000 F   0  0  0  0  0  0  0  0  0  0  0  0
   -0.5430    1.3941    0.0000 F   0  0  0  0  0  0  0  0  0  0  0  0
    0.7210    2.4547    0.0000 F   0  0  0  0  0  0  0  0  0  0  0  0
   -0.0952    0.8799    0.0000 C   0  0  0  0  0  0  0  0  0  0  0  0
   -0.8882    1.1073    0.0000 F   0  0  0  0  0  0  0  0  0  0  0  0
   -0.9076    0.7367    0.0000 F   0  0  0  0  0  0  0  0  0  0  0  0
   -0.0952    0.0549    0.0000 C   0  0  0  0  0  0  0  0  0  0  0  0
   -0.9076    0.1982    0.0000 F   0  0  0  0  0  0  0  0  0  0  0  0
   -0.3773   -0.7203    0.0000 F   0  0  0  0  0  0  0  0  0  0  0  0
    0.6193   -0.3576    0.0000 C   0  0  0  0  0  0  0  0  0  0  0  0
    1.1496   -0.9895    0.0000 F   0  0  0  0  0  0  0  0  0  0  0  0
    0.0890   -0.9895    0.0000 F   0  0  0  0  0  0  0  0  0  0  0  0
    1.3338    0.0549    0.0000 C   0  0  0  0  0  0  0  0  0  0  0  0
    2.1583    0.0262    0.0000 F   0  0  0  0  0  0  0  0  0  0  0  0
    1.7710   -0.6447    0.0000 C   0  0  0  0  0  0  0  0  0  0  0  0
    2.2081   -1.3443    0.0000 F   0  0  0  0  0  0  0  0  0  0  0  0
    2.4706   -0.2075    0.0000 F   0  0  0  0  0  0  0  0  0  0  0  0
    1.2407   -1.2767    0.0000 F   0  0  0  0  0  0  0  0  0  0  0  0
  1  2  1  0  0  0  0
  2  3  1  0  0  0  0
  4  2  1  0  0  0  0
  4  5  1  0  0  0  0
  4  6  1  0  0  0  0
  6  7  1  0  0  0  0
  6  8  1  0  0  0  0
  6  9  1  0  0  0  0
 10  4  1  0  0  0  0
 10 11  1  0  0  0  0
 10 12  1  0  0  0  0
 13 10  1  0  0  0  0
 13 14  1  0  0  0  0
 13 15  1  0  0  0  0
 16 13  1  0  0  0  0
 16 17  1  0  0  0  0
 16 18  1  0  0  0  0
 19 16  1  0  0  0  0
  2 19  1  0  0  0  0
 19 20  1  0  0  0  0
 19 21  1  0  0  0  0
 21 22  1  0  0  0  0
 21 23  1  0  0  0  0
 21 24  1  0  0  0  0
M  END
> <RowID>
960

> <Original_SMILES>
FC1(F)C(F)(C(F)(F)C(F)(F)C(F)(F)C1(F)C(F)(F)F)C(F)(F)F

> <Canonical_QSARr>
FC1(F)C(F)(C(F)(F)C(F)(F)C(F)(F)C1(F)C(F)(F)F)C(F)(F)F

> <InChI_Code_QSARr>
InChI=1S/C8F16/c9-1(7(19,20)21)3(11,12)2(10,8(22,23)24)5(15,16)6(17,18)4(1,13)14

> <InChI Key_QSARr>
LOQGSOTUHASIHI-UHFFFAOYSA-N

> <Salt_Solvent>


> <Salt_Solvent_ID>
0

> <Number of connected components>
1

$$$$
Molecule_961
  Mrv2316 01072400032D          

 30 32  0  0  0  0            999 V2000
    4.1182    2.7965    0.0000 C   0  0  0  0  0  0  0  0  0  0  0  0
    3.4037    3.2090    0.0000 C   0  0  0  0  0  0  0  0  0  0  0  0
    3.8162    3.9235    0.0000 C   0  0  0  0  0  0  0  0  0  0  0  0
    2.9912    2.4945    0.0000 O   0  0  0  0  0  0  0  0  0  0  0  0
    2.6893    3.6215    0.0000 C   0  0  0  0  0  0  0  0  0  0  0  0
    2.6893    4.4465    0.0000 O   0  0  0  0  0  0  0  0  0  0  0  0
    1.9748    3.2090    0.0000 C   0  0  0  0  0  0  0  0  0  0  0  0
    1.2603    3.6215    0.0000 C   0  0  0  0  0  0  0  0  0  0  0  0
    0.5459    3.2090    0.0000 C   0  0  0  0  0  0  0  0  0  0  0  0
    0.5459    2.3840    0.0000 C   0  0  0  0  0  0  0  0  0  0  0  0
   -0.2388    2.1291    0.0000 C   0  0  0  0  0  0  0  0  0  0  0  0
    0.0968    1.3754    0.0000 C   0  0  0  0  0  0  0  0  0  0  0  0
   -0.7237    2.7965    0.0000 C   0  0  0  0  0  0  0  0  0  0  0  0
   -0.2388    3.4639    0.0000 C   0  0  0  0  0  0  0  0  0  0  0  0
   -0.8460    4.0224    0.0000 C   0  0  0  0  0  0  0  0  0  0  0  0
   -0.0757    4.2727    0.0000 C   0  0  0  0  0  0  0  0  0  0  0  0
   -0.9532    1.7166    0.0000 C   0  0  0  0  0  0  0  0  0  0  0  0
   -1.6677    2.1291    0.0000 C   0  0  0  0  0  0  0  0  0  0  0  0
   -2.3822    1.7166    0.0000 C   0  0  0  0  0  0  0  0  0  0  0  0
   -2.3822    0.8916    0.0000 C   0  0  0  0  0  0  0  0  0  0  0  0
   -3.0966    0.4791    0.0000 C   0  0  0  0  0  0  0  0  0  0  0  0
   -3.8111    0.8916    0.0000 O   0  0  0  0  0  0  0  0  0  0  0  0
   -3.0966   -0.3459    0.0000 C   0  0  0  0  0  0  0  0  0  0  0  0
   -3.0966   -1.1709    0.0000 C   0  0  0  0  0  0  0  0  0  0  0  0
   -3.9216   -0.3459    0.0000 C   0  0  0  0  0  0  0  0  0  0  0  0
   -2.2716   -0.3459    0.0000 O   0  0  0  0  0  0  0  0  0  0  0  0
   -1.6677    0.4791    0.0000 C   0  0  0  0  0  0  0  0  0  0  0  0
   -0.9532    0.8916    0.0000 C   0  0  0  0  0  0  0  0  0  0  0  0
    1.2603    1.9715    0.0000 C   0  0  0  0  0  0  0  0  0  0  0  0
    1.9748    2.3840    0.0000 C   0  0  0  0  0  0  0  0  0  0  0  0
  1  2  1  0  0  0  0
  2  3  1  0  0  0  0
  2  4  1  0  0  0  0
  2  5  1  0  0  0  0
  5  6  2  0  0  0  0
  5  7  1  0  0  0  0
  8  7  1  0  0  0  0
  9  8  2  0  0  0  0
  9 10  1  0  0  0  0
 10 11  1  0  0  0  0
 11 12  1  0  0  0  0
 11 13  1  0  0  0  0
 13 14  1  0  0  0  0
 14  9  1  0  0  0  0
 14 15  1  0  0  0  0
 14 16  1  0  0  0  0
 11 17  1  0  0  0  0
 18 17  1  0  0  0  0
 19 18  2  0  0  0  0
 20 19  1  0  0  0  0
 20 21  1  0  0  0  0
 21 22  2  0  0  0  0
 21 23  1  0  0  0  0
 23 24  1  0  0  0  0
 23 25  1  0  0  0  0
 23 26  1  0  0  0  0
 27 20  2  0  0  0  0
 28 27  1  0  0  0  0
 17 28  2  0  0  0  0
 29 10  2  0  0  0  0
 30 29  1  0  0  0  0
  7 30  2  0  0  0  0
M  END
> <RowID>
961

> <Original_SMILES>
CC(C)(O)C(=O)C1C=C2C(=CC=1)C(C)(CC2(C)C)C1C=CC(=CC=1)C(=O)C(C)(C)O

> <Canonical_QSARr>
CC(C)(O)C(=O)C1C=C2C(=CC=1)C(C)(CC2(C)C)C1C=CC(=CC=1)C(=O)C(C)(C)O

> <InChI_Code_QSARr>
InChI=1S/C26H32O4/c1-23(2)15-26(7,18-11-8-16(9-12-18)21(27)24(3,4)29)19-13-10-17(14-20(19)23)22(28)25(5,6)30/h8-14,29-30H,15H2,1-7H3

> <InChI Key_QSARr>
MRBZZNMTRWISRD-UHFFFAOYSA-N

> <Salt_Solvent>


> <Salt_Solvent_ID>
0

> <Number of connected components>
1

$$$$
Molecule_962
  Mrv2316 01072400032D          

 19 18  0  0  0  0            999 V2000
    2.2835    1.3184    0.0000 C   0  0  0  0  0  0  0  0  0  0  0  0
    2.2835    2.1434    0.0000 C   0  0  0  0  0  0  0  0  0  0  0  0
    2.9980    2.5559    0.0000 C   0  0  0  0  0  0  0  0  0  0  0  0
    3.7125    2.1434    0.0000 C   0  0  0  0  0  0  0  0  0  0  0  0
    3.7125    1.3184    0.0000 O   0  0  0  0  0  0  0  0  0  0  0  0
    4.4269    2.5559    0.0000 N   0  0  0  0  0  0  0  0  0  0  0  0
    5.1414    2.1434    0.0000 C   0  0  0  0  0  0  0  0  0  0  0  0
    5.8559    2.5559    0.0000 C   0  0  0  0  0  0  0  0  0  0  0  0
    6.5704    2.1434    0.0000 C   0  0  0  0  0  0  0  0  0  0  0  0
    7.2848    2.5559    0.0000 C   0  0  0  0  0  0  0  0  0  0  0  0
    7.9993    2.1434    0.0000 C   0  0  0  0  0  0  0  0  0  0  0  0
    8.7138    2.5559    0.0000 C   0  0  0  0  0  0  0  0  0  0  0  0
    5.8559    3.3809    0.0000 C   0  0  0  0  0  0  0  0  0  0  0  0
    6.5704    3.7934    0.0000 C   0  0  0  0  0  0  0  0  0  0  0  0
    1.5691    2.5559    0.0000 C   0  0  0  0  0  0  0  0  0  0  0  0
    0.8546    2.1434    0.0000 C   0  0  0  0  0  0  0  0  0  0  0  0
    0.1401    1.7309    0.0000 C   0  0  0  0  0  0  0  0  0  0  0  0
    0.4421    2.8579    0.0000 C   0  0  0  0  0  0  0  0  0  0  0  0
    1.2671    1.4289    0.0000 C   0  0  0  0  0  0  0  0  0  0  0  0
  1  2  1  0  0  0  0
  2  3  1  0  0  0  0
  3  4  1  0  0  0  0
  4  5  2  0  0  0  0
  4  6  1  0  0  0  0
  6  7  1  0  0  0  0
  7  8  1  0  0  0  0
  8  9  1  0  0  0  0
  9 10  1  0  0  0  0
 10 11  1  0  0  0  0
 11 12  1  0  0  0  0
  8 13  1  0  0  0  0
 13 14  1  0  0  0  0
  2 15  1  0  0  0  0
 15 16  1  0  0  0  0
 16 17  1  0  0  0  0
 16 18  1  0  0  0  0
 16 19  1  0  0  0  0
M  END
> <RowID>
962

> <Original_SMILES>
CC(CC(=O)NCC(CCCC)CC)CC(C)(C)C

> <Canonical_QSARr>
CC(CC(=O)NCC(CCCC)CC)CC(C)(C)C

> <InChI_Code_QSARr>
InChI=1S/C17H35NO/c1-7-9-10-15(8-2)13-18-16(19)11-14(3)12-17(4,5)6/h14-15H,7-13H2,1-6H3,(H,18,19)

> <InChI Key_QSARr>
OKVLJDBLLKNOQZ-UHFFFAOYSA-N

> <Salt_Solvent>


> <Salt_Solvent_ID>
0

> <Number of connected components>
1

$$$$
Molecule_963
  Mrv2316 01072400032D          

 17 18  0  0  0  0            999 V2000
   -0.1681   -7.0853    0.0000 C   0  0  0  0  0  0  0  0  0  0  0  0
    0.5464   -6.6728    0.0000 C   0  0  0  0  0  0  0  0  0  0  0  0
    0.5464   -5.8478    0.0000 C   0  0  0  0  0  0  0  0  0  0  0  0
    1.2608   -5.4353    0.0000 C   0  0  0  0  0  0  0  0  0  0  0  0
    1.2608   -4.6103    0.0000 C   0  0  0  0  0  0  0  0  0  0  0  0
    0.5464   -4.1978    0.0000 C   0  0  0  0  0  0  0  0  0  0  0  0
    0.5464   -3.3728    0.0000 C   0  0  0  0  0  0  0  0  0  0  0  0
    1.2608   -2.9603    0.0000 C   0  0  0  0  0  0  0  0  0  0  0  0
    1.2608   -2.1353    0.0000 C   0  0  0  0  0  0  0  0  0  0  0  0
    0.5464   -1.7228    0.0000 C   0  0  0  0  0  0  0  0  0  0  0  0
    0.5464   -0.8978    0.0000 C   0  0  0  0  0  0  0  0  0  0  0  0
    1.2608   -0.4853    0.0000 C   0  0  0  0  0  0  0  0  0  0  0  0
    1.2608    0.3397    0.0000 C   0  0  0  0  0  0  0  0  0  0  0  0
   -0.1681   -2.1353    0.0000 C   0  0  0  0  0  0  0  0  0  0  0  0
   -0.1681   -2.9603    0.0000 C   0  0  0  0  0  0  0  0  0  0  0  0
   -0.1681   -4.6103    0.0000 C   0  0  0  0  0  0  0  0  0  0  0  0
   -0.1681   -5.4353    0.0000 C   0  0  0  0  0  0  0  0  0  0  0  0
  1  2  1  0  0  0  0
  2  3  1  0  0  0  0
  4  3  1  0  0  0  0
  5  4  1  0  0  0  0
  6  5  1  0  0  0  0
  6  7  1  0  0  0  0
  8  7  1  0  0  0  0
  9  8  1  0  0  0  0
 10  9  1  0  0  0  0
 10 11  1  0  0  0  0
 11 12  1  0  0  0  0
 12 13  1  0  0  0  0
 14 10  1  0  0  0  0
 15 14  1  0  0  0  0
  7 15  1  0  0  0  0
 16  6  1  0  0  0  0
 17 16  1  0  0  0  0
  3 17  1  0  0  0  0
M  END
> <RowID>
963

> <Original_SMILES>
CCC1CCC(CC1)C1CCC(CCC)CC1

> <Canonical_QSARr>
CCC1CCC(CC1)C1CCC(CCC)CC1

> <InChI_Code_QSARr>
InChI=1S/C17H32/c1-3-5-15-8-12-17(13-9-15)16-10-6-14(4-2)7-11-16/h14-17H,3-13H2,1-2H3

> <InChI Key_QSARr>
KORMYSCDCHFFMN-UHFFFAOYSA-N

> <Salt_Solvent>


> <Salt_Solvent_ID>
0

> <Number of connected components>
1

$$$$
Molecule_964
  Mrv2316 01072400032D          

 14 14  0  0  0  0            999 V2000
   -1.4490    1.6384    0.0000 N   0  0  0  0  0  0  0  0  0  0  0  0
   -0.7346    1.2259    0.0000 S   0  0  0  0  0  0  0  0  0  0  0  0
   -1.1471    0.5114    0.0000 O   0  0  0  0  0  0  0  0  0  0  0  0
   -0.3221    1.9404    0.0000 O   0  0  0  0  0  0  0  0  0  0  0  0
   -0.0201    0.8134    0.0000 C   0  0  0  0  0  0  0  0  0  0  0  0
   -0.0201   -0.0116    0.0000 C   0  0  0  0  0  0  0  0  0  0  0  0
    0.6944   -0.4241    0.0000 C   0  0  0  0  0  0  0  0  0  0  0  0
    1.4089   -0.0116    0.0000 C   0  0  0  0  0  0  0  0  0  0  0  0
    1.4089    0.8134    0.0000 C   0  0  0  0  0  0  0  0  0  0  0  0
    0.6944    1.2259    0.0000 C   0  0  0  0  0  0  0  0  0  0  0  0
    0.6944    2.0509    0.0000 C   0  0  0  0  0  0  0  0  0  0  0  0
    0.6944    2.8759    0.0000 F   0  0  0  0  0  0  0  0  0  0  0  0
   -0.0902    2.3058    0.0000 F   0  0  0  0  0  0  0  0  0  0  0  0
    1.5194    2.0509    0.0000 F   0  0  0  0  0  0  0  0  0  0  0  0
  1  2  1  0  0  0  0
  2  3  2  0  0  0  0
  2  4  2  0  0  0  0
  2  5  1  0  0  0  0
  6  5  2  0  0  0  0
  7  6  1  0  0  0  0
  8  7  2  0  0  0  0
  9  8  1  0  0  0  0
 10  9  2  0  0  0  0
  5 10  1  0  0  0  0
 10 11  1  0  0  0  0
 11 12  1  0  0  0  0
 11 13  1  0  0  0  0
 11 14  1  0  0  0  0
M  END
> <RowID>
964

> <Original_SMILES>
NS(=O)(=O)C1=CC=CC=C1C(F)(F)F

> <Canonical_QSARr>
NS(=O)(=O)C1=CC=CC=C1C(F)(F)F

> <InChI_Code_QSARr>
InChI=1S/C7H6F3NO2S/c8-7(9,10)5-3-1-2-4-6(5)14(11,12)13/h1-4H,(H2,11,12,13)

> <InChI Key_QSARr>
AFFPZJFLSDVZBV-UHFFFAOYSA-N

> <Salt_Solvent>


> <Salt_Solvent_ID>
0

> <Number of connected components>
1

$$$$
Molecule_965
  Mrv2316 01072400032D          

 14 13  0  0  0  0            999 V2000
    1.6500    2.8579    0.0000 O   0  0  0  0  0  0  0  0  0  0  0  0
    1.2375    2.1434    0.0000 S   0  0  0  0  0  0  0  0  0  0  0  0
    0.5230    2.5559    0.0000 O   0  0  0  0  0  0  0  0  0  0  0  0
    1.9520    1.7309    0.0000 O   0  0  0  0  0  0  0  0  0  0  0  0
    0.8250    1.4289    0.0000 C   0  0  0  0  0  0  0  0  0  0  0  0
    1.2375    0.7145    0.0000 C   0  0  0  0  0  0  0  0  0  0  0  0
    0.8250   -0.0000    0.0000 N   0  0  0  0  0  0  0  0  0  0  0  0
    1.2375   -0.7145    0.0000 C   0  0  0  0  0  0  0  0  0  0  0  0
    0.8250   -1.4289    0.0000 C   0  0  0  0  0  0  0  0  0  0  0  0
    1.2375   -2.1434    0.0000 S   0  0  0  0  0  0  0  0  0  0  0  0
    1.6500   -2.8579    0.0000 O   0  0  0  0  0  0  0  0  0  0  0  0
    0.5230   -2.5559    0.0000 O   0  0  0  0  0  0  0  0  0  0  0  0
    1.9520   -1.7309    0.0000 O   0  0  0  0  0  0  0  0  0  0  0  0
    0.0000   -0.0000    0.0000 O   0  0  0  0  0  0  0  0  0  0  0  0
  1  2  1  0  0  0  0
  2  3  2  0  0  0  0
  2  4  2  0  0  0  0
  2  5  1  0  0  0  0
  5  6  1  0  0  0  0
  6  7  1  0  0  0  0
  7  8  1  0  0  0  0
  8  9  1  0  0  0  0
  9 10  1  0  0  0  0
 10 11  1  0  0  0  0
 10 12  2  0  0  0  0
 10 13  2  0  0  0  0
  7 14  1  0  0  0  0
M  END
> <RowID>
965

> <Original_SMILES>
[Na+].[Na+].[O-]S(=O)(=O)CCN(O)CCS([O-])(=O)=O

> <Canonical_QSARr>
ON(CCS(O)(=O)=O)CCS(O)(=O)=O

> <InChI_Code_QSARr>
InChI=1S/C4H11NO7S2/c6-5(1-3-13(7,8)9)2-4-14(10,11)12/h6H,1-4H2,(H,7,8,9)(H,10,11,12)

> <InChI Key_QSARr>
KDWGEPODFRBACT-UHFFFAOYSA-N

> <Salt_Solvent>
[Na+]

> <Salt_Solvent_ID>
110

> <Number of connected components>
3

$$$$
Molecule_966
  Mrv2316 01072400032D          

  9  8  0  0  0  0            999 V2000
   -0.6039   -2.4750    0.0000 C   0  0  0  0  0  0  0  0  0  0  0  0
    0.1105   -2.0625    0.0000 C   0  0  0  0  0  0  0  0  0  0  0  0
    0.1105   -1.2375    0.0000 O   0  0  0  0  0  0  0  0  0  0  0  0
    0.8250   -0.8250    0.0000 C   0  0  0  0  0  0  0  0  0  0  0  0
    1.5395   -1.2375    0.0000 O   0  0  0  0  0  0  0  0  0  0  0  0
    0.8250   -0.0000    0.0000 C   0  0  0  0  0  0  0  0  0  0  0  0
    0.8250    0.8250    0.0000 C   0  0  0  0  0  0  0  0  0  0  0  0
    1.6500   -0.0000    0.0000 C   0  0  0  0  0  0  0  0  0  0  0  0
    0.0000   -0.0000    0.0000 Br  0  0  0  0  0  0  0  0  0  0  0  0
  1  2  1  0  0  0  0
  2  3  1  0  0  0  0
  3  4  1  0  0  0  0
  4  5  2  0  0  0  0
  4  6  1  0  0  0  0
  6  7  1  0  0  0  0
  6  8  1  0  0  0  0
  6  9  1  0  0  0  0
M  END
> <RowID>
966

> <Original_SMILES>
CCOC(=O)C(C)(C)Br

> <Canonical_QSARr>
CCOC(=O)C(C)(C)Br

> <InChI_Code_QSARr>
InChI=1S/C6H11BrO2/c1-4-9-5(8)6(2,3)7/h4H2,1-3H3

> <InChI Key_QSARr>
IOLQWGVDEFWYNP-UHFFFAOYSA-N

> <Salt_Solvent>


> <Salt_Solvent_ID>
0

> <Number of connected components>
1

$$$$
Molecule_967
  Mrv2316 01072400032D          

 14 15  0  0  0  0            999 V2000
    2.7845    2.1405    0.0000 C   0  0  0  0  0  0  0  0  0  0  0  0
    2.0701    1.7280    0.0000 N   0  0  0  0  0  0  0  0  0  0  0  0
    1.3556    2.1405    0.0000 C   0  0  0  0  0  0  0  0  0  0  0  0
    1.3556    2.9655    0.0000 O   0  0  0  0  0  0  0  0  0  0  0  0
    0.6411    1.7280    0.0000 C   0  0  0  0  0  0  0  0  0  0  0  0
    0.6411    0.9030    0.0000 C   0  0  0  0  0  0  0  0  0  0  0  0
   -0.1435    0.6480    0.0000 N   0  0  0  0  0  0  0  0  0  0  0  0
   -0.6284    1.3155    0.0000 C   0  0  0  0  0  0  0  0  0  0  0  0
   -0.1435    1.9829    0.0000 N   0  0  0  0  0  0  0  0  0  0  0  0
   -0.3984    2.7675    0.0000 C   0  0  0  0  0  0  0  0  0  0  0  0
    1.3556    0.4905    0.0000 N   0  0  0  0  0  0  0  0  0  0  0  0
    1.3556   -0.3345    0.0000 C   0  0  0  0  0  0  0  0  0  0  0  0
    2.0701    0.9030    0.0000 C   0  0  0  0  0  0  0  0  0  0  0  0
    2.7845    0.4905    0.0000 O   0  0  0  0  0  0  0  0  0  0  0  0
  1  2  1  0  0  0  0
  3  2  1  0  0  0  0
  3  4  2  0  0  0  0
  5  3  1  0  0  0  0
  5  6  2  0  0  0  0
  6  7  1  0  0  0  0
  7  8  2  0  0  0  0
  8  9  1  0  0  0  0
  9  5  1  0  0  0  0
  9 10  1  0  0  0  0
 11  6  1  0  0  0  0
 11 12  1  0  0  0  0
 13 11  1  0  0  0  0
  2 13  1  0  0  0  0
 13 14  2  0  0  0  0
M  END
> <RowID>
967

> <Original_SMILES>
CN1C(=O)C2=C(N=CN2C)N(C)C1=O

> <Canonical_QSARr>
CN1C(=O)C2=C(N=CN2C)N(C)C1=O

> <InChI_Code_QSARr>
InChI=1S/C8H10N4O2/c1-10-4-9-6-5(10)7(13)12(3)8(14)11(6)2/h4H,1-3H3

> <InChI Key_QSARr>
RYYVLZVUVIJVGH-UHFFFAOYSA-N

> <Salt_Solvent>


> <Salt_Solvent_ID>
0

> <Number of connected components>
1

$$$$
Molecule_968
  Mrv2316 01072400032D          

 14 13  0  0  0  0            999 V2000
    4.9500    2.8579    0.0000 C   0  0  0  0  0  0  0  0  0  0  0  0
    4.5375    2.1434    0.0000 C   0  0  0  0  0  0  0  0  0  0  0  0
    4.9500    1.4289    0.0000 C   0  0  0  0  0  0  0  0  0  0  0  0
    3.7125    2.1434    0.0000 C   0  0  0  0  0  0  0  0  0  0  0  0
    3.3000    1.4289    0.0000 C   0  0  0  0  0  0  0  0  0  0  0  0
    2.4750    1.4289    0.0000 C   0  0  0  0  0  0  0  0  0  0  0  0
    2.0625    0.7145    0.0000 C   0  0  0  0  0  0  0  0  0  0  0  0
    2.4750   -0.0000    0.0000 C   0  0  0  0  0  0  0  0  0  0  0  0
    1.2375    0.7145    0.0000 C   0  0  0  0  0  0  0  0  0  0  0  0
    0.8250   -0.0000    0.0000 C   0  0  0  0  0  0  0  0  0  0  0  0
    0.0000   -0.0000    0.0000 C   0  0  0  0  0  0  0  0  0  0  0  0
   -0.4125   -0.7145    0.0000 C   0  0  0  0  0  0  0  0  0  0  0  0
    0.0000   -1.4289    0.0000 C   0  0  0  0  0  0  0  0  0  0  0  0
   -1.2375   -0.7145    0.0000 O   0  0  0  0  0  0  0  0  0  0  0  0
  1  2  1  0  0  0  0
  2  3  1  0  0  0  0
  2  4  2  0  0  0  0
  4  5  1  0  0  0  0
  5  6  1  0  0  0  0
  6  7  1  0  0  0  0
  7  8  1  0  0  0  0
  7  9  2  0  0  0  0
  9 10  1  4  0  0  0
 10 11  2  0  0  0  0
 11 12  1  4  0  0  0
 12 13  1  0  0  0  0
 12 14  2  0  0  0  0
M  END
> <RowID>
968

> <Original_SMILES>
CC(C)=CCCC(C)=CC=CC(C)=O

> <Canonical_QSARr>
CC(C)=CCCC(C)=CC=CC(C)=O

> <InChI_Code_QSARr>
InChI=1S/C13H20O/c1-11(2)7-5-8-12(3)9-6-10-13(4)14/h6-7,9-10H,5,8H2,1-4H3

> <InChI Key_QSARr>
JXJIQCXXJGRKRJ-UHFFFAOYSA-N

> <Salt_Solvent>


> <Salt_Solvent_ID>
0

> <Number of connected components>
1

$$$$
Molecule_969
  Mrv2316 01072400032D          

 12 12  0  0  0  0            999 V2000
    1.4289    3.7125    0.0000 C   0  0  0  0  0  0  0  0  0  0  0  0
    0.7145    3.3000    0.0000 C   0  0  0  0  0  0  0  0  0  0  0  0
   -0.0000    3.7125    0.0000 C   0  0  0  0  0  0  0  0  0  0  0  0
    0.7145    2.4750    0.0000 C   0  0  0  0  0  0  0  0  0  0  0  0
    1.4289    2.0625    0.0000 O   0  0  0  0  0  0  0  0  0  0  0  0
   -0.0000    2.0625    0.0000 O   0  0  0  0  0  0  0  0  0  0  0  0
   -0.0000    1.2375    0.0000 C   0  0  0  0  0  0  0  0  0  0  0  0
   -0.7145    0.8250    0.0000 C   0  0  0  0  0  0  0  0  0  0  0  0
   -0.7145   -0.0000    0.0000 C   0  0  0  0  0  0  0  0  0  0  0  0
   -0.0000   -0.4125    0.0000 C   0  0  0  0  0  0  0  0  0  0  0  0
    0.7145    0.0000    0.0000 C   0  0  0  0  0  0  0  0  0  0  0  0
    0.7145    0.8250    0.0000 C   0  0  0  0  0  0  0  0  0  0  0  0
  1  2  1  0  0  0  0
  2  3  2  0  0  0  0
  2  4  1  0  0  0  0
  4  5  2  0  0  0  0
  4  6  1  0  0  0  0
  6  7  1  0  0  0  0
  8  7  1  0  0  0  0
  9  8  2  0  0  0  0
 10  9  1  0  0  0  0
 11 10  2  0  0  0  0
 12 11  1  0  0  0  0
  7 12  2  0  0  0  0
M  END
> <RowID>
969

> <Original_SMILES>
CC(=C)C(=O)OC1C=CC=CC=1

> <Canonical_QSARr>
CC(=C)C(=O)OC1C=CC=CC=1

> <InChI_Code_QSARr>
InChI=1S/C10H10O2/c1-8(2)10(11)12-9-6-4-3-5-7-9/h3-7H,1H2,2H3

> <InChI Key_QSARr>
QIWKUEJZZCOPFV-UHFFFAOYSA-N

> <Salt_Solvent>


> <Salt_Solvent_ID>
0

> <Number of connected components>
1

$$$$
Molecule_970
  Mrv2316 01072400032D          

  7  6  0  0  0  0            999 V2000
    1.2375    2.1434    0.0000 C   0  0  0  0  0  0  0  0  0  0  0  0
    0.8250    1.4289    0.0000 C   0  0  0  0  0  0  0  0  0  0  0  0
   -0.0000    1.4289    0.0000 O   0  0  0  0  0  0  0  0  0  0  0  0
    1.2375    0.7145    0.0000 O   0  0  0  0  0  0  0  0  0  0  0  0
    0.8250   -0.0000    0.0000 C   0  0  0  0  0  0  0  0  0  0  0  0
    1.2375   -0.7145    0.0000 C   0  0  0  0  0  0  0  0  0  0  0  0
    0.0000   -0.0000    0.0000 C   0  0  0  0  0  0  0  0  0  0  0  0
  1  2  1  0  0  0  0
  2  3  2  0  0  0  0
  2  4  1  0  0  0  0
  4  5  1  0  0  0  0
  5  6  1  0  0  0  0
  5  7  2  0  0  0  0
M  END
> <RowID>
970

> <Original_SMILES>
CC(=O)OC(C)=C

> <Canonical_QSARr>
CC(=O)OC(C)=C

> <InChI_Code_QSARr>
InChI=1S/C5H8O2/c1-4(2)7-5(3)6/h1H2,2-3H3

> <InChI Key_QSARr>
HETCEOQFVDFGSY-UHFFFAOYSA-N

> <Salt_Solvent>


> <Salt_Solvent_ID>
0

> <Number of connected components>
1

$$$$
Molecule_971
  Mrv2316 01072400032D          

 27 28  0  0  0  0            999 V2000
   -0.7409   -5.5000    0.0000 C   0  0  0  0  0  0  0  0  0  0  0  0
   -0.0265   -5.9125    0.0000 O   0  0  0  0  0  0  0  0  0  0  0  0
    0.6880   -5.5000    0.0000 C   0  0  0  0  0  0  0  0  0  0  0  0
    1.4025   -5.9125    0.0000 C   0  0  0  0  0  0  0  0  0  0  0  0
    2.1169   -5.5000    0.0000 C   0  0  0  0  0  0  0  0  0  0  0  0
    2.8314   -5.9125    0.0000 C   0  0  0  0  0  0  0  0  0  0  0  0
    3.5459   -5.5000    0.0000 C   0  0  0  0  0  0  0  0  0  0  0  0
    4.2604   -5.9125    0.0000 C   0  0  0  0  0  0  0  0  0  0  0  0
    4.2604   -6.7375    0.0000 O   0  0  0  0  0  0  0  0  0  0  0  0
    4.9748   -5.5000    0.0000 C   0  0  0  0  0  0  0  0  0  0  0  0
    5.6893   -5.9125    0.0000 C   0  0  0  0  0  0  0  0  0  0  0  0
    5.6893   -6.7375    0.0000 O   0  0  0  0  0  0  0  0  0  0  0  0
    6.4038   -5.5000    0.0000 C   0  0  0  0  0  0  0  0  0  0  0  0
    7.1182   -5.9125    0.0000 C   0  0  0  0  0  0  0  0  0  0  0  0
    7.8327   -5.5000    0.0000 C   0  0  0  0  0  0  0  0  0  0  0  0
    8.5472   -5.9125    0.0000 C   0  0  0  0  0  0  0  0  0  0  0  0
    9.2617   -5.5000    0.0000 C   0  0  0  0  0  0  0  0  0  0  0  0
    9.9761   -5.9125    0.0000 O   0  0  0  0  0  0  0  0  0  0  0  0
   10.6906   -5.5000    0.0000 C   0  0  0  0  0  0  0  0  0  0  0  0
    9.2617   -4.6750    0.0000 C   0  0  0  0  0  0  0  0  0  0  0  0
    9.9761   -4.2625    0.0000 O   0  0  0  0  0  0  0  0  0  0  0  0
    8.5472   -4.2625    0.0000 C   0  0  0  0  0  0  0  0  0  0  0  0
    7.8327   -4.6750    0.0000 C   0  0  0  0  0  0  0  0  0  0  0  0
    2.1169   -4.6750    0.0000 C   0  0  0  0  0  0  0  0  0  0  0  0
    1.4025   -4.2625    0.0000 C   0  0  0  0  0  0  0  0  0  0  0  0
    0.6880   -4.6750    0.0000 C   0  0  0  0  0  0  0  0  0  0  0  0
   -0.0265   -4.2625    0.0000 O   0  0  0  0  0  0  0  0  0  0  0  0
  1  2  1  0  0  0  0
  2  3  1  0  0  0  0
  4  3  1  0  0  0  0
  5  4  2  0  0  0  0
  5  6  1  0  0  0  0
  6  7  1  0  0  0  0
  7  8  1  0  0  0  0
  8  9  2  0  0  0  0
  8 10  1  0  0  0  0
 10 11  1  0  0  0  0
 11 12  2  0  0  0  0
 11 13  1  0  0  0  0
 13 14  1  0  0  0  0
 14 15  1  0  0  0  0
 16 15  1  0  0  0  0
 17 16  2  0  0  0  0
 17 18  1  0  0  0  0
 18 19  1  0  0  0  0
 20 17  1  0  0  0  0
 20 21  1  0  0  0  0
 22 20  2  0  0  0  0
 23 22  1  0  0  0  0
 15 23  2  0  0  0  0
 24  5  1  0  0  0  0
 25 24  2  0  0  0  0
 26 25  1  0  0  0  0
  3 26  2  0  0  0  0
 26 27  1  0  0  0  0
M  END
> <RowID>
971

> <Original_SMILES>
COC1C=C(CCC(=O)CC(=O)CCC2C=C(OC)C(O)=CC=2)C=CC=1O

> <Canonical_QSARr>
COC1C=C(CCC(=O)CC(=O)CCC2C=C(OC)C(O)=CC=2)C=CC=1O

> <InChI_Code_QSARr>
InChI=1S/C21H24O6/c1-26-20-11-14(5-9-18(20)24)3-7-16(22)13-17(23)8-4-15-6-10-19(25)21(12-15)27-2/h5-6,9-12,24-25H,3-4,7-8,13H2,1-2H3

> <InChI Key_QSARr>
LBTVHXHERHESKG-UHFFFAOYSA-N

> <Salt_Solvent>


> <Salt_Solvent_ID>
0

> <Number of connected components>
1

$$$$
Molecule_972
  Mrv2316 01072400032D          

 39 44  0  0  0  0            999 V2000
    3.7415   -1.2259    0.0000 C   0  0  0  0  0  0  0  0  0  0  0  0
    3.5699   -0.4189    0.0000 N   0  0  0  0  0  0  0  0  0  0  0  0
    4.1220    0.1942    0.0000 C   0  0  0  0  0  0  0  0  0  0  0  0
    3.7095    0.9087    0.0000 C   0  0  0  0  0  0  0  0  0  0  0  0
    4.1220    1.6231    0.0000 C   0  0  0  0  0  0  0  0  0  0  0  0
    4.9470    1.6231    0.0000 C   0  0  0  0  0  0  0  0  0  0  0  0
    5.3595    0.9087    0.0000 C   0  0  0  0  0  0  0  0  0  0  0  0
    4.9470    0.1942    0.0000 C   0  0  0  0  0  0  0  0  0  0  0  0
    2.9025    0.7371    0.0000 N   0  0  0  0  0  0  0  0  0  0  0  0
    2.8163   -0.0833    0.0000 C   0  0  0  0  0  0  0  0  0  0  0  0
    2.1018   -0.4958    0.0000 C   0  0  0  0  0  0  0  0  0  0  0  0
    1.3873   -0.0833    0.0000 C   0  0  0  0  0  0  0  0  0  0  0  0
    0.6729   -0.4958    0.0000 C   0  0  0  0  0  0  0  0  0  0  0  0
    0.6729   -1.3208    0.0000 C   0  0  0  0  0  0  0  0  0  0  0  0
   -0.1118   -1.5758    0.0000 N   0  0  0  0  0  0  0  0  0  0  0  0
   -0.5967   -0.9083    0.0000 C   0  0  0  0  0  0  0  0  0  0  0  0
   -0.1118   -0.2409    0.0000 N   0  0  0  0  0  0  0  0  0  0  0  0
   -0.3667    0.5437    0.0000 C   0  0  0  0  0  0  0  0  0  0  0  0
   -1.1737    0.7152    0.0000 C   0  0  0  0  0  0  0  0  0  0  0  0
   -1.4286    1.4999    0.0000 C   0  0  0  0  0  0  0  0  0  0  0  0
   -2.2356    1.6714    0.0000 C   0  0  0  0  0  0  0  0  0  0  0  0
   -2.7876    1.0583    0.0000 C   0  0  0  0  0  0  0  0  0  0  0  0
   -3.5946    1.2298    0.0000 C   0  0  0  0  0  0  0  0  0  0  0  0
   -3.8495    2.0144    0.0000 C   0  0  0  0  0  0  0  0  0  0  0  0
   -3.2975    2.6275    0.0000 C   0  0  0  0  0  0  0  0  0  0  0  0
   -3.5524    3.4122    0.0000 O   0  0  0  0  0  0  0  0  0  0  0  0
   -2.4905    2.4560    0.0000 O   0  0  0  0  0  0  0  0  0  0  0  0
   -4.6565    2.1860    0.0000 C   0  0  0  0  0  0  0  0  0  0  0  0
   -5.2085    1.5729    0.0000 C   0  0  0  0  0  0  0  0  0  0  0  0
   -4.9536    0.7883    0.0000 C   0  0  0  0  0  0  0  0  0  0  0  0
   -4.1466    0.6167    0.0000 C   0  0  0  0  0  0  0  0  0  0  0  0
   -2.5327    0.2737    0.0000 C   0  0  0  0  0  0  0  0  0  0  0  0
   -1.7257    0.1021    0.0000 C   0  0  0  0  0  0  0  0  0  0  0  0
   -1.4217   -0.9083    0.0000 C   0  0  0  0  0  0  0  0  0  0  0  0
   -1.8342   -1.6228    0.0000 C   0  0  0  0  0  0  0  0  0  0  0  0
   -2.6592   -1.6228    0.0000 C   0  0  0  0  0  0  0  0  0  0  0  0
    1.3873   -1.7333    0.0000 C   0  0  0  0  0  0  0  0  0  0  0  0
    1.3873   -2.5583    0.0000 C   0  0  0  0  0  0  0  0  0  0  0  0
    2.1018   -1.3208    0.0000 C   0  0  0  0  0  0  0  0  0  0  0  0
  1  2  1  0  0  0  0
  3  2  1  0  0  0  0
  3  4  2  0  0  0  0
  4  5  1  0  0  0  0
  5  6  2  0  0  0  0
  6  7  1  0  0  0  0
  7  8  2  0  0  0  0
  8  3  1  0  0  0  0
  9  4  1  0  0  0  0
 10  9  2  0  0  0  0
  2 10  1  0  0  0  0
 10 11  1  0  0  0  0
 12 11  2  0  0  0  0
 13 12  1  0  0  0  0
 13 14  2  0  0  0  0
 14 15  1  0  0  0  0
 15 16  2  0  0  0  0
 16 17  1  0  0  0  0
 17 13  1  0  0  0  0
 17 18  1  0  0  0  0
 18 19  1  0  0  0  0
 20 19  1  0  0  0  0
 21 20  2  0  0  0  0
 22 21  1  0  0  0  0
 22 23  1  0  0  0  0
 24 23  1  0  0  0  0
 24 25  1  0  0  0  0
 25 26  2  0  0  0  0
 25 27  1  0  0  0  0
 28 24  2  0  0  0  0
 29 28  1  0  0  0  0
 30 29  2  0  0  0  0
 31 30  1  0  0  0  0
 23 31  2  0  0  0  0
 32 22  2  0  0  0  0
 33 32  1  0  0  0  0
 19 33  2  0  0  0  0
 16 34  1  0  0  0  0
 34 35  1  0  0  0  0
 35 36  1  0  0  0  0
 37 14  1  0  0  0  0
 37 38  1  0  0  0  0
 39 37  2  0  0  0  0
 11 39  1  0  0  0  0
M  END
> <RowID>
972

> <Original_SMILES>
Cl.CN1C(=NC2C=CC=CC1=2)C1C=C(C)C2N=C(CCC)N(CC3=CC=C(C=C3)C3=CC=CC=C3C(O)=O)C=2C=1

> <Canonical_QSARr>
CN1C(=NC2C=CC=CC1=2)C1C=C(C)C2N=C(CCC)N(CC3=CC=C(C=C3)C3=CC=CC=C3C(O)=O)C=2C=1

> <InChI_Code_QSARr>
InChI=1S/C33H30N4O2/c1-4-9-30-35-31-21(2)18-24(32-34-27-12-7-8-13-28(27)36(32)3)19-29(31)37(30)20-22-14-16-23(17-15-22)25-10-5-6-11-26(25)33(38)39/h5-8,10-19H,4,9,20H2,1-3H3,(H,38,39)

> <InChI Key_QSARr>
RMMXLENWKUUMAY-UHFFFAOYSA-N

> <Salt_Solvent>
Cl

> <Salt_Solvent_ID>
170

> <Number of connected components>
2

$$$$
Molecule_973
  Mrv2316 01072400032D          

  4  3  0  0  0  0            999 V2000
    0.8250   -0.0000    0.0000 C   0  0  0  0  0  0  0  0  0  0  0  0
    1.2375    0.7145    0.0000 O   0  0  0  0  0  0  0  0  0  0  0  0
    1.2375   -0.7145    0.0000 O   0  0  0  0  0  0  0  0  0  0  0  0
    0.0000   -0.0000    0.0000 O   0  0  0  0  0  0  0  0  0  0  0  0
  1  2  1  0  0  0  0
  1  3  2  0  0  0  0
  1  4  1  0  0  0  0
M  END
> <RowID>
973

> <Original_SMILES>
[La+3].[La+3].[O-]C([O-])=O.[O-]C([O-])=O.[O-]C([O-])=O

> <Canonical_QSARr>
OC(O)=O

> <InChI_Code_QSARr>
InChI=1S/CH2O3/c2-1(3)4/h(H2,2,3,4)

> <InChI Key_QSARr>
BVKZGUZCCUSVTD-UHFFFAOYSA-N

> <Salt_Solvent>
[La+3]

> <Salt_Solvent_ID>
570

> <Number of connected components>
5

$$$$
Molecule_974
  Mrv2316 01072400032D          

 11 11  0  0  0  0            999 V2000
    2.7629    0.2501    0.0000 O   0  0  0  0  0  0  0  0  0  0  0  0
    1.9783   -0.0049    0.0000 C   0  0  0  0  0  0  0  0  0  0  0  0
    1.3108    0.4801    0.0000 C   0  0  0  0  0  0  0  0  0  0  0  0
    1.3108    1.3051    0.0000 C   0  0  0  0  0  0  0  0  0  0  0  0
    2.0253    1.7176    0.0000 O   0  0  0  0  0  0  0  0  0  0  0  0
    2.0253    2.5426    0.0000 C   0  0  0  0  0  0  0  0  0  0  0  0
    0.5963    1.7176    0.0000 O   0  0  0  0  0  0  0  0  0  0  0  0
    0.6434   -0.0049    0.0000 C   0  0  0  0  0  0  0  0  0  0  0  0
   -0.1412    0.2501    0.0000 O   0  0  0  0  0  0  0  0  0  0  0  0
    0.8983   -0.7895    0.0000 O   0  0  0  0  0  0  0  0  0  0  0  0
    1.7233   -0.7895    0.0000 C   0  0  0  0  0  0  0  0  0  0  0  0
  1  2  1  0  0  0  0
  3  2  2  0  0  0  0
  3  4  1  0  0  0  0
  4  5  1  0  0  0  0
  5  6  1  0  0  0  0
  4  7  2  0  0  0  0
  8  3  1  0  0  0  0
  8  9  2  0  0  0  0
 10  8  1  0  0  0  0
 11 10  1  0  0  0  0
  2 11  1  0  0  0  0
M  END
> <RowID>
974

> <Original_SMILES>
[Na+].COC(=O)C1C(=O)OCC=1[O-]

> <Canonical_QSARr>
COC(=O)C1C(=O)OCC=1O

> <InChI_Code_QSARr>
InChI=1S/C6H6O5/c1-10-5(8)4-3(7)2-11-6(4)9/h7H,2H2,1H3

> <InChI Key_QSARr>
GIWLDPURHIORDX-UHFFFAOYSA-N

> <Salt_Solvent>
[Na+]

> <Salt_Solvent_ID>
110

> <Number of connected components>
2

$$$$
Molecule_975
  Mrv2316 01072400032D          

 12 12  0  0  0  0            999 V2000
    0.0000   -3.0250    0.0000 C   0  0  0  0  0  0  0  0  0  0  0  0
    0.7145   -3.4375    0.0000 C   0  0  0  0  0  0  0  0  0  0  0  0
    1.4289   -3.8500    0.0000 C   0  0  0  0  0  0  0  0  0  0  0  0
    2.1434   -3.4375    0.0000 O   0  0  0  0  0  0  0  0  0  0  0  0
    2.8579   -3.8500    0.0000 C   0  0  0  0  0  0  0  0  0  0  0  0
    3.5724   -3.4375    0.0000 C   0  0  0  0  0  0  0  0  0  0  0  0
    4.2868   -3.8500    0.0000 C   0  0  0  0  0  0  0  0  0  0  0  0
    5.0013   -3.4375    0.0000 C   0  0  0  0  0  0  0  0  0  0  0  0
    5.0013   -2.6125    0.0000 C   0  0  0  0  0  0  0  0  0  0  0  0
    5.7158   -2.2000    0.0000 Cl  0  0  0  0  0  0  0  0  0  0  0  0
    4.2868   -2.2000    0.0000 C   0  0  0  0  0  0  0  0  0  0  0  0
    3.5724   -2.6125    0.0000 C   0  0  0  0  0  0  0  0  0  0  0  0
  1  2  3  0  0  0  0
  2  3  1  0  0  0  0
  3  4  1  0  0  0  0
  4  5  1  0  0  0  0
  5  6  1  0  0  0  0
  7  6  1  0  0  0  0
  8  7  2  0  0  0  0
  9  8  1  0  0  0  0
  9 10  1  0  0  0  0
 11  9  2  0  0  0  0
 12 11  1  0  0  0  0
  6 12  2  0  0  0  0
M  END
> <RowID>
975

> <Original_SMILES>
C#CCOCC1C=CC(Cl)=CC=1

> <Canonical_QSARr>
C#CCOCC1C=CC(Cl)=CC=1

> <InChI_Code_QSARr>
InChI=1S/C10H9ClO/c1-2-7-12-8-9-3-5-10(11)6-4-9/h1,3-6H,7-8H2

> <InChI Key_QSARr>
VUJITVTVTWYDAK-UHFFFAOYSA-N

> <Salt_Solvent>


> <Salt_Solvent_ID>
0

> <Number of connected components>
1

$$$$
Molecule_976
  Mrv2316 01072400032D          

  8  7  0  0  0  0            999 V2000
    0.1105   -2.0625    0.0000 C   0  0  0  0  0  0  0  0  0  0  0  0
    0.1105   -1.2375    0.0000 C   0  0  0  0  0  0  0  0  0  0  0  0
   -0.6039   -0.8250    0.0000 O   0  0  0  0  0  0  0  0  0  0  0  0
    0.8250   -0.8250    0.0000 O   0  0  0  0  0  0  0  0  0  0  0  0
    0.8250   -0.0000    0.0000 C   0  0  0  0  0  0  0  0  0  0  0  0
    0.8250    0.8250    0.0000 C   0  0  0  0  0  0  0  0  0  0  0  0
    1.6500   -0.0000    0.0000 C   0  0  0  0  0  0  0  0  0  0  0  0
   -0.0000   -0.0000    0.0000 C   0  0  0  0  0  0  0  0  0  0  0  0
  1  2  1  0  0  0  0
  2  3  2  0  0  0  0
  2  4  1  0  0  0  0
  4  5  1  0  0  0  0
  5  6  1  0  0  0  0
  5  7  1  0  0  0  0
  5  8  1  0  0  0  0
M  END
> <RowID>
976

> <Original_SMILES>
CC(=O)OC(C)(C)C

> <Canonical_QSARr>
CC(=O)OC(C)(C)C

> <InChI_Code_QSARr>
InChI=1S/C6H12O2/c1-5(7)8-6(2,3)4/h1-4H3

> <InChI Key_QSARr>
WMOVHXAZOJBABW-UHFFFAOYSA-N

> <Salt_Solvent>


> <Salt_Solvent_ID>
0

> <Number of connected components>
1

$$$$
Molecule_977
  Mrv2316 01072400032D          

 12 11  0  0  0  0            999 V2000
    2.9980    2.5559    0.0000 N   0  0  0  0  0  0  0  0  0  0  0  0
    3.7125    2.1434    0.0000 C   0  0  0  0  0  0  0  0  0  0  0  0
    3.7125    1.3184    0.0000 N   0  0  0  0  0  0  0  0  0  0  0  0
    4.4270    2.5559    0.0000 N   0  0  0  0  0  0  0  0  0  0  0  0
    5.1414    2.1434    0.0000 C   0  0  0  0  0  0  0  0  0  0  0  0
    5.8559    2.5559    0.0000 C   0  0  0  0  0  0  0  0  0  0  0  0
    6.5704    2.1434    0.0000 C   0  0  0  0  0  0  0  0  0  0  0  0
    7.2849    2.5559    0.0000 C   0  0  0  0  0  0  0  0  0  0  0  0
    7.2849    3.3809    0.0000 N   0  0  0  0  0  0  0  0  0  0  0  0
    7.9993    2.1434    0.0000 C   0  0  0  0  0  0  0  0  0  0  0  0
    8.7138    2.5559    0.0000 O   0  0  0  0  0  0  0  0  0  0  0  0
    7.9993    1.3184    0.0000 O   0  0  0  0  0  0  0  0  0  0  0  0
  1  2  1  0  0  0  0
  2  3  2  0  0  0  0
  2  4  1  0  0  0  0
  4  5  1  0  0  0  0
  5  6  1  0  0  0  0
  6  7  1  0  0  0  0
  7  8  1  0  0  0  0
  8  9  1  0  0  0  0
  8 10  1  0  0  0  0
 10 11  1  0  0  0  0
 10 12  2  0  0  0  0
M  END
> <RowID>
977

> <Original_SMILES>
NC(=N)NCCCC(N)C(O)=O

> <Canonical_QSARr>
NC(=N)NCCCC(N)C(O)=O

> <InChI_Code_QSARr>
InChI=1S/C6H14N4O2/c7-4(5(11)12)2-1-3-10-6(8)9/h4H,1-3,7H2,(H,11,12)(H4,8,9,10)

> <InChI Key_QSARr>
ODKSFYDXXFIFQN-UHFFFAOYSA-N

> <Salt_Solvent>


> <Salt_Solvent_ID>
0

> <Number of connected components>
1

$$$$
Molecule_978
  Mrv2316 01072400032D          

 14 14  0  0  0  0            999 V2000
   -0.0000   -3.7714    0.0000 C   0  0  0  0  0  0  0  0  0  0  0  0
    0.7145   -3.3589    0.0000 O   0  0  0  0  0  0  0  0  0  0  0  0
    1.4289   -3.7714    0.0000 C   0  0  0  0  0  0  0  0  0  0  0  0
    1.4289   -4.5964    0.0000 O   0  0  0  0  0  0  0  0  0  0  0  0
    2.1434   -3.3589    0.0000 C   0  0  0  0  0  0  0  0  0  0  0  0
    2.8579   -3.7714    0.0000 O   0  0  0  0  0  0  0  0  0  0  0  0
    3.5724   -3.3589    0.0000 C   0  0  0  0  0  0  0  0  0  0  0  0
    4.2868   -3.7714    0.0000 C   0  0  0  0  0  0  0  0  0  0  0  0
    5.0013   -3.3589    0.0000 C   0  0  0  0  0  0  0  0  0  0  0  0
    5.0013   -2.5339    0.0000 C   0  0  0  0  0  0  0  0  0  0  0  0
    4.2868   -2.1214    0.0000 C   0  0  0  0  0  0  0  0  0  0  0  0
    4.2868   -1.2964    0.0000 Cl  0  0  0  0  0  0  0  0  0  0  0  0
    3.5724   -2.5339    0.0000 C   0  0  0  0  0  0  0  0  0  0  0  0
    2.8579   -2.1214    0.0000 Cl  0  0  0  0  0  0  0  0  0  0  0  0
  1  2  1  0  0  0  0
  2  3  1  0  0  0  0
  3  4  2  0  0  0  0
  3  5  1  0  0  0  0
  5  6  1  0  0  0  0
  6  7  1  0  0  0  0
  8  7  1  0  0  0  0
  9  8  2  0  0  0  0
 10  9  1  0  0  0  0
 11 10  2  0  0  0  0
 11 12  1  0  0  0  0
 13 11  1  0  0  0  0
  7 13  2  0  0  0  0
 13 14  1  0  0  0  0
M  END
> <RowID>
978

> <Original_SMILES>
COC(=O)COC1C=CC=C(Cl)C=1Cl

> <Canonical_QSARr>
COC(=O)COC1C=CC=C(Cl)C=1Cl

> <InChI_Code_QSARr>
InChI=1S/C9H8Cl2O3/c1-13-8(12)5-14-7-4-2-3-6(10)9(7)11/h2-4H,5H2,1H3

> <InChI Key_QSARr>
RHXWOFSSGKIUOH-UHFFFAOYSA-N

> <Salt_Solvent>


> <Salt_Solvent_ID>
0

> <Number of connected components>
1

$$$$
Molecule_979
  Mrv2316 01072400032D          

 12 11  0  0  0  0            999 V2000
    1.2375    0.7145    0.0000 C   0  0  0  0  0  0  0  0  0  0  0  0
    0.8250   -0.0000    0.0000 C   0  0  0  0  0  0  0  0  0  0  0  0
    1.2375   -0.7145    0.0000 C   0  0  0  0  0  0  0  0  0  0  0  0
    0.8250   -1.4290    0.0000 O   0  0  0  0  0  0  0  0  0  0  0  0
    1.2375   -2.1434    0.0000 C   0  0  0  0  0  0  0  0  0  0  0  0
    0.8250   -2.8579    0.0000 C   0  0  0  0  0  0  0  0  0  0  0  0
    1.2375   -3.5724    0.0000 N   0  3  0  0  0  0  0  0  0  0  0  0
    1.6500   -4.2868    0.0000 C   0  0  0  0  0  0  0  0  0  0  0  0
    0.5230   -3.9849    0.0000 C   0  0  0  0  0  0  0  0  0  0  0  0
    1.9520   -3.1599    0.0000 C   0  0  0  0  0  0  0  0  0  0  0  0
    2.0625   -0.7145    0.0000 O   0  0  0  0  0  0  0  0  0  0  0  0
   -0.0000   -0.0000    0.0000 C   0  0  0  0  0  0  0  0  0  0  0  0
  1  2  1  0  0  0  0
  2  3  1  0  0  0  0
  3  4  1  0  0  0  0
  4  5  1  0  0  0  0
  5  6  1  0  0  0  0
  6  7  1  0  0  0  0
  7  8  1  0  0  0  0
  7  9  1  0  0  0  0
  7 10  1  0  0  0  0
  3 11  2  0  0  0  0
  2 12  2  0  0  0  0
M  CHG  1   7   1
M  END
> <RowID>
979

> <Original_SMILES>
CC(=C)C(=O)OCC[N+](C)(C)C.COS([O-])(=O)=O

> <Canonical_QSARr>
CC(=C)C(=O)OCC[N+](C)(C)C

> <InChI_Code_QSARr>
InChI=1S/C9H18NO2/c1-8(2)9(11)12-7-6-10(3,4)5/h1,6-7H2,2-5H3/q+1

> <InChI Key_QSARr>
USFMMZYROHDWPJ-UHFFFAOYSA-N

> <Salt_Solvent>
COS(=O)(=O)[O-]

> <Salt_Solvent_ID>
2242

> <Number of connected components>
2

$$$$
Molecule_980
  Mrv2316 01072400032D          

  9  8  0  0  0  0            999 V2000
    3.1895    2.6664    0.0000 C   0  0  0  0  0  0  0  0  0  0  0  0
    3.1895    1.8414    0.0000 C   0  0  0  0  0  0  0  0  0  0  0  0
    2.4750    1.4289    0.0000 C   0  0  0  0  0  0  0  0  0  0  0  0
    1.7605    1.8414    0.0000 C   0  0  0  0  0  0  0  0  0  0  0  0
    3.9039    1.4289    0.0000 C   0  0  0  0  0  0  0  0  0  0  0  0
    3.9039    0.6039    0.0000 O   0  0  0  0  0  0  0  0  0  0  0  0
    4.6184    1.8414    0.0000 O   0  0  0  0  0  0  0  0  0  0  0  0
    5.3329    1.4289    0.0000 C   0  0  0  0  0  0  0  0  0  0  0  0
    6.0474    1.8414    0.0000 C   0  0  0  0  0  0  0  0  0  0  0  0
  1  2  1  0  0  0  0
  2  3  1  0  0  0  0
  3  4  1  0  0  0  0
  2  5  1  0  0  0  0
  5  6  2  0  0  0  0
  5  7  1  0  0  0  0
  7  8  1  0  0  0  0
  8  9  1  0  0  0  0
M  END
> <RowID>
980

> <Original_SMILES>
CC(CC)C(=O)OCC

> <Canonical_QSARr>
CC(CC)C(=O)OCC

> <InChI_Code_QSARr>
InChI=1S/C7H14O2/c1-4-6(3)7(8)9-5-2/h6H,4-5H2,1-3H3

> <InChI Key_QSARr>
HCRBXQFHJMCTLF-UHFFFAOYSA-N

> <Salt_Solvent>


> <Salt_Solvent_ID>
0

> <Number of connected components>
1

$$$$
Molecule_981
  Mrv2316 01072400032D          

  7  6  0  0  0  0            999 V2000
    2.8875   -0.7145    0.0000 O   0  0  0  0  0  0  0  0  0  0  0  0
    2.0625   -0.7145    0.0000 S   0  0  0  0  0  0  0  0  0  0  0  0
    2.0625    0.1105    0.0000 O   0  0  0  0  0  0  0  0  0  0  0  0
    2.0625   -1.5395    0.0000 O   0  0  0  0  0  0  0  0  0  0  0  0
    1.2375   -0.7145    0.0000 C   0  0  0  0  0  0  0  0  0  0  0  0
    0.8250   -0.0000    0.0000 C   0  0  0  0  0  0  0  0  0  0  0  0
    0.0000   -0.0000    0.0000 O   0  0  0  0  0  0  0  0  0  0  0  0
  1  2  1  0  0  0  0
  2  3  2  0  0  0  0
  2  4  2  0  0  0  0
  2  5  1  0  0  0  0
  5  6  1  0  0  0  0
  6  7  1  0  0  0  0
M  END
> <RowID>
981

> <Original_SMILES>
[Na+].[O-]S(=O)(=O)CCO

> <Canonical_QSARr>
OCCS(O)(=O)=O

> <InChI_Code_QSARr>
InChI=1S/C2H6O4S/c3-1-2-7(4,5)6/h3H,1-2H2,(H,4,5,6)

> <InChI Key_QSARr>
SUMDYPCJJOFFON-UHFFFAOYSA-N

> <Salt_Solvent>
[Na+]

> <Salt_Solvent_ID>
110

> <Number of connected components>
2

$$$$
Molecule_982
  Mrv2316 01072400032D          

  6  5  0  0  0  0            999 V2000
    2.4750   -1.4289    0.0000 C   0  0  0  0  0  0  0  0  0  0  0  0
    2.0625   -0.7145    0.0000 C   0  0  0  0  0  0  0  0  0  0  0  0
    1.2375   -0.7145    0.0000 C   0  0  0  0  0  0  0  0  0  0  0  0
    0.8250   -1.4289    0.0000 Cl  0  0  0  0  0  0  0  0  0  0  0  0
    0.8250    0.0000    0.0000 C   0  0  0  0  0  0  0  0  0  0  0  0
    0.0000    0.0000    0.0000 Cl  0  0  0  0  0  0  0  0  0  0  0  0
  1  2  2  0  0  0  0
  2  3  1  0  0  0  0
  3  4  1  0  0  0  0
  3  5  1  0  0  0  0
  5  6  1  0  0  0  0
M  END
> <RowID>
982

> <Original_SMILES>
C=CC(Cl)CCl

> <Canonical_QSARr>
C=CC(Cl)CCl

> <InChI_Code_QSARr>
InChI=1S/C4H6Cl2/c1-2-4(6)3-5/h2,4H,1,3H2

> <InChI Key_QSARr>
XVEASTGLHPVZNA-UHFFFAOYSA-N

> <Salt_Solvent>


> <Salt_Solvent_ID>
0

> <Number of connected components>
1

$$$$
Molecule_983
  Mrv2316 01072400032D          

 23 25  0  0  0  0            999 V2000
    1.4289   -2.6543    0.0000 O   0  0  0  0  0  0  0  0  0  0  0  0
    1.4289   -1.8293    0.0000 C   0  0  0  0  0  0  0  0  0  0  0  0
    0.7145   -1.4168    0.0000 C   0  0  0  0  0  0  0  0  0  0  0  0
   -0.0000   -1.8293    0.0000 C   0  0  0  0  0  0  0  0  0  0  0  0
   -0.7145   -1.4168    0.0000 C   0  0  0  0  0  0  0  0  0  0  0  0
   -1.4289   -1.8293    0.0000 C   0  0  0  0  0  0  0  0  0  0  0  0
   -1.4289   -2.6543    0.0000 C   0  0  0  0  0  0  0  0  0  0  0  0
   -2.1434   -3.0668    0.0000 C   0  0  0  0  0  0  0  0  0  0  0  0
   -2.8579   -2.6543    0.0000 C   0  0  0  0  0  0  0  0  0  0  0  0
   -3.5724   -3.0668    0.0000 C   0  0  0  0  0  0  0  0  0  0  0  0
   -3.5724   -3.8918    0.0000 C   0  0  0  0  0  0  0  0  0  0  0  0
   -2.8579   -4.3043    0.0000 C   0  0  0  0  0  0  0  0  0  0  0  0
   -2.1434   -3.8918    0.0000 C   0  0  0  0  0  0  0  0  0  0  0  0
   -0.7145   -3.0668    0.0000 C   0  0  0  0  0  0  0  0  0  0  0  0
   -0.0000   -2.6543    0.0000 C   0  0  0  0  0  0  0  0  0  0  0  0
    2.1434   -1.4168    0.0000 O   0  0  0  0  0  0  0  0  0  0  0  0
    2.8579   -1.8293    0.0000 C   0  0  0  0  0  0  0  0  0  0  0  0
    3.5723   -1.4168    0.0000 C   0  0  0  0  0  0  0  0  0  0  0  0
    4.2868   -1.8293    0.0000 C   0  0  0  0  0  0  0  0  0  0  0  0
    5.0013   -1.4168    0.0000 C   0  0  0  0  0  0  0  0  0  0  0  0
    5.0013   -0.5918    0.0000 C   0  0  0  0  0  0  0  0  0  0  0  0
    4.2868   -0.1793    0.0000 C   0  0  0  0  0  0  0  0  0  0  0  0
    3.5723   -0.5918    0.0000 C   0  0  0  0  0  0  0  0  0  0  0  0
  1  2  2  0  0  0  0
  2  3  1  0  0  0  0
  3  4  1  0  0  0  0
  5  4  1  0  0  0  0
  6  5  2  0  0  0  0
  7  6  1  0  0  0  0
  7  8  1  0  0  0  0
  9  8  1  0  0  0  0
 10  9  2  0  0  0  0
 11 10  1  0  0  0  0
 12 11  2  0  0  0  0
 13 12  1  0  0  0  0
  8 13  2  0  0  0  0
 14  7  2  0  0  0  0
 15 14  1  0  0  0  0
  4 15  2  0  0  0  0
  2 16  1  0  0  0  0
 16 17  1  0  0  0  0
 17 18  1  0  0  0  0
 19 18  1  0  0  0  0
 20 19  1  0  0  0  0
 21 20  1  0  0  0  0
 22 21  1  0  0  0  0
 23 22  1  0  0  0  0
 18 23  1  0  0  0  0
M  END
> <RowID>
983

> <Original_SMILES>
O=C(CC1C=CC(=CC=1)C1C=CC=CC=1)OCC1CCCCC1

> <Canonical_QSARr>
O=C(CC1C=CC(=CC=1)C1C=CC=CC=1)OCC1CCCCC1

> <InChI_Code_QSARr>
InChI=1S/C21H24O2/c22-21(23-16-18-7-3-1-4-8-18)15-17-11-13-20(14-12-17)19-9-5-2-6-10-19/h2,5-6,9-14,18H,1,3-4,7-8,15-16H2

> <InChI Key_QSARr>
ATFHWZMCQLSDJW-UHFFFAOYSA-N

> <Salt_Solvent>


> <Salt_Solvent_ID>
0

> <Number of connected components>
1

$$$$
Molecule_984
  Mrv2316 01072400032D          

 20 19  0  0  0  0            999 V2000
    9.1855    6.1283    0.0000 C   0  0  0  0  0  0  0  0  0  0  0  0
    9.9000    5.7158    0.0000 C   0  0  0  0  0  0  0  0  0  0  0  0
   10.6145    6.1283    0.0000 C   0  0  0  0  0  0  0  0  0  0  0  0
   11.3289    5.7158    0.0000 C   0  0  0  0  0  0  0  0  0  0  0  0
   12.0434    6.1283    0.0000 C   0  0  0  0  0  0  0  0  0  0  0  0
   12.7579    5.7158    0.0000 C   0  0  0  0  0  0  0  0  0  0  0  0
   13.4724    6.1283    0.0000 C   0  0  0  0  0  0  0  0  0  0  0  0
   14.1868    5.7158    0.0000 C   0  0  0  0  0  0  0  0  0  0  0  0
   14.9013    6.1283    0.0000 O   0  0  0  0  0  0  0  0  0  0  0  0
   15.6158    5.7158    0.0000 C   0  0  0  0  0  0  0  0  0  0  0  0
   15.6158    4.8908    0.0000 O   0  0  0  0  0  0  0  0  0  0  0  0
   16.3302    6.1283    0.0000 O   0  0  0  0  0  0  0  0  0  0  0  0
   17.0447    5.7158    0.0000 C   0  0  0  0  0  0  0  0  0  0  0  0
   17.7592    6.1283    0.0000 C   0  0  0  0  0  0  0  0  0  0  0  0
   18.4736    5.7158    0.0000 C   0  0  0  0  0  0  0  0  0  0  0  0
   19.1881    6.1283    0.0000 C   0  0  0  0  0  0  0  0  0  0  0  0
   19.9026    5.7158    0.0000 C   0  0  0  0  0  0  0  0  0  0  0  0
   20.6171    6.1283    0.0000 C   0  0  0  0  0  0  0  0  0  0  0  0
   21.3315    5.7158    0.0000 C   0  0  0  0  0  0  0  0  0  0  0  0
   22.0460    6.1283    0.0000 C   0  0  0  0  0  0  0  0  0  0  0  0
  1  2  1  0  0  0  0
  2  3  1  0  0  0  0
  3  4  1  0  0  0  0
  4  5  1  0  0  0  0
  5  6  1  0  0  0  0
  6  7  1  0  0  0  0
  7  8  1  0  0  0  0
  8  9  1  0  0  0  0
  9 10  1  0  0  0  0
 10 11  2  0  0  0  0
 10 12  1  0  0  0  0
 12 13  1  0  0  0  0
 13 14  1  0  0  0  0
 14 15  1  0  0  0  0
 15 16  1  0  0  0  0
 16 17  1  0  0  0  0
 17 18  1  0  0  0  0
 18 19  1  0  0  0  0
 19 20  1  0  0  0  0
M  END
> <RowID>
984

> <Original_SMILES>
CCCCCCCCOC(=O)OCCCCCCCC

> <Canonical_QSARr>
CCCCCCCCOC(=O)OCCCCCCCC

> <InChI_Code_QSARr>
InChI=1S/C17H34O3/c1-3-5-7-9-11-13-15-19-17(18)20-16-14-12-10-8-6-4-2/h3-16H2,1-2H3

> <InChI Key_QSARr>
PKPOVTYZGGYDIJ-UHFFFAOYSA-N

> <Salt_Solvent>


> <Salt_Solvent_ID>
0

> <Number of connected components>
1

$$$$
Molecule_985
  Mrv2316 01072400032D          

  7  6  0  0  0  0            999 V2000
    2.4750   -1.4289    0.0000 C   0  0  0  0  0  0  0  0  0  0  0  0
    1.6500   -1.4289    0.0000 O   0  0  0  0  0  0  0  0  0  0  0  0
    1.2375   -0.7145    0.0000 Si  0  0  0  0  0  0  0  0  0  0  0  0
    1.9520   -0.3020    0.0000 C   0  0  0  0  0  0  0  0  0  0  0  0
    0.5230   -1.1270    0.0000 C   0  0  0  0  0  0  0  0  0  0  0  0
    0.8250   -0.0000    0.0000 C   0  0  0  0  0  0  0  0  0  0  0  0
    0.0000   -0.0000    0.0000 Cl  0  0  0  0  0  0  0  0  0  0  0  0
  1  2  1  0  0  0  0
  2  3  1  0  0  0  0
  3  4  1  0  0  0  0
  3  5  1  0  0  0  0
  3  6  1  0  0  0  0
  6  7  1  0  0  0  0
M  END
> <RowID>
985

> <Original_SMILES>
CO[Si](C)(C)CCl

> <Canonical_QSARr>
CO[Si](C)(C)CCl

> <InChI_Code_QSARr>
InChI=1S/C4H11ClOSi/c1-6-7(2,3)4-5/h4H2,1-3H3

> <InChI Key_QSARr>
ZCSLOBFDVTWIBL-UHFFFAOYSA-N

> <Salt_Solvent>


> <Salt_Solvent_ID>
0

> <Number of connected components>
1

$$$$
Molecule_986
  Mrv2316 01072400032D          

 27 27  0  0  0  0            999 V2000
   -2.1893    1.5649    0.0000 O   0  0  0  0  0  0  0  0  0  0  0  0
   -1.9071    0.7896    0.0000 C   0  0  0  0  0  0  0  0  0  0  0  0
   -2.4374    0.1576    0.0000 O   0  0  0  0  0  0  0  0  0  0  0  0
   -1.0946    0.6464    0.0000 C   0  0  0  0  0  0  0  0  0  0  0  0
   -0.8125   -0.1289    0.0000 C   0  0  0  0  0  0  0  0  0  0  0  0
   -0.0000   -0.2721    0.0000 C   0  0  0  0  0  0  0  0  0  0  0  0
    0.7145   -0.6846    0.0000 C   0  0  0  0  0  0  0  0  0  0  0  0
    1.4289   -0.2721    0.0000 C   0  0  0  0  0  0  0  0  0  0  0  0
    1.4289    0.5529    0.0000 C   0  0  0  0  0  0  0  0  0  0  0  0
    0.7145    0.9654    0.0000 C   0  0  0  0  0  0  0  0  0  0  0  0
    1.2448    1.5973    0.0000 C   0  0  0  0  0  0  0  0  0  0  0  0
    0.9626    2.3726    0.0000 C   0  0  0  0  0  0  0  0  0  0  0  0
    1.4929    3.0046    0.0000 C   0  0  0  0  0  0  0  0  0  0  0  0
    1.2107    3.7798    0.0000 O   0  0  0  0  0  0  0  0  0  0  0  0
    2.3054    2.8613    0.0000 O   0  0  0  0  0  0  0  0  0  0  0  0
    0.1842    1.5973    0.0000 C   0  0  0  0  0  0  0  0  0  0  0  0
   -0.6283    1.4541    0.0000 C   0  0  0  0  0  0  0  0  0  0  0  0
   -1.1586    2.0861    0.0000 C   0  0  0  0  0  0  0  0  0  0  0  0
   -1.9711    1.9428    0.0000 O   0  0  0  0  0  0  0  0  0  0  0  0
   -0.8764    2.8613    0.0000 O   0  0  0  0  0  0  0  0  0  0  0  0
   -0.0000    0.5529    0.0000 C   0  0  0  0  0  0  0  0  0  0  0  0
   -0.7145    0.9654    0.0000 O   0  0  0  0  0  0  0  0  0  0  0  0
   -0.2822   -1.0474    0.0000 C   0  0  0  0  0  0  0  0  0  0  0  0
    0.2481   -1.6794    0.0000 C   0  0  0  0  0  0  0  0  0  0  0  0
    1.0606   -1.5361    0.0000 C   0  0  0  0  0  0  0  0  0  0  0  0
    1.3428   -0.7609    0.0000 O   0  0  0  0  0  0  0  0  0  0  0  0
    1.5909   -2.1681    0.0000 O   0  0  0  0  0  0  0  0  0  0  0  0
  1  2  1  0  0  0  0
  2  3  2  0  0  0  0
  2  4  1  0  0  0  0
  4  5  1  0  0  0  0
  5  6  1  0  0  0  0
  7  6  1  0  0  0  0
  8  7  1  0  0  0  0
  9  8  1  0  0  0  0
 10  9  1  0  0  0  0
 10 11  1  0  0  0  0
 11 12  1  0  0  0  0
 12 13  1  0  0  0  0
 13 14  1  0  0  0  0
 13 15  2  0  0  0  0
 10 16  1  0  0  0  0
 16 17  1  0  0  0  0
 17 18  1  0  0  0  0
 18 19  1  0  0  0  0
 18 20  2  0  0  0  0
 21 10  1  0  0  0  0
  6 21  1  0  0  0  0
 21 22  2  0  0  0  0
  6 23  1  0  0  0  0
 23 24  1  0  0  0  0
 24 25  1  0  0  0  0
 25 26  1  0  0  0  0
 25 27  2  0  0  0  0
M  END
> <RowID>
986

> <Original_SMILES>
OC(=O)CCC1(CCCC(CCC(O)=O)(CCC(O)=O)C1=O)CCC(O)=O

> <Canonical_QSARr>
OC(=O)CCC1(CCCC(CCC(O)=O)(CCC(O)=O)C1=O)CCC(O)=O

> <InChI_Code_QSARr>
InChI=1S/C18H26O9/c19-12(20)2-8-17(9-3-13(21)22)6-1-7-18(16(17)27,10-4-14(23)24)11-5-15(25)26/h1-11H2,(H,19,20)(H,21,22)(H,23,24)(H,25,26)

> <InChI Key_QSARr>
CIVMSMDSVPVXSU-UHFFFAOYSA-N

> <Salt_Solvent>


> <Salt_Solvent_ID>
0

> <Number of connected components>
1

$$$$
Molecule_988
  Mrv2316 01072400032D          

 27 29  0  0  0  0            999 V2000
    2.1434   -5.2708    0.0000 C   0  0  0  0  0  0  0  0  0  0  0  0
    1.4289   -4.8583    0.0000 C   0  0  0  0  0  0  0  0  0  0  0  0
    0.7145   -5.2708    0.0000 O   0  0  0  0  0  0  0  0  0  0  0  0
    1.4289   -4.0333    0.0000 C   0  0  0  0  0  0  0  0  0  0  0  0
    0.7145   -3.6208    0.0000 N   0  0  0  0  0  0  0  0  0  0  0  0
    0.7145   -2.7958    0.0000 N   0  0  0  0  0  0  0  0  0  0  0  0
   -0.0000   -2.3833    0.0000 C   0  0  0  0  0  0  0  0  0  0  0  0
   -0.0000   -1.5583    0.0000 C   0  0  0  0  0  0  0  0  0  0  0  0
   -0.7145   -1.1458    0.0000 C   0  0  0  0  0  0  0  0  0  0  0  0
   -1.4289   -1.5583    0.0000 C   0  0  0  0  0  0  0  0  0  0  0  0
   -1.4289   -2.3833    0.0000 C   0  0  0  0  0  0  0  0  0  0  0  0
   -0.7145   -2.7958    0.0000 C   0  0  0  0  0  0  0  0  0  0  0  0
   -0.7145   -3.6208    0.0000 O   0  0  0  0  0  0  0  0  0  0  0  0
   -0.0000   -4.0333    0.0000 C   0  0  0  0  0  0  0  0  0  0  0  0
    2.1434   -3.6208    0.0000 C   0  0  0  0  0  0  0  0  0  0  0  0
    2.1434   -2.7958    0.0000 O   0  0  0  0  0  0  0  0  0  0  0  0
    2.8579   -4.0333    0.0000 N   0  0  0  0  0  0  0  0  0  0  0  0
    3.5723   -3.6208    0.0000 C   0  0  0  0  0  0  0  0  0  0  0  0
    4.2868   -4.0333    0.0000 C   0  0  0  0  0  0  0  0  0  0  0  0
    5.0013   -3.6208    0.0000 C   0  0  0  0  0  0  0  0  0  0  0  0
    5.7859   -3.8758    0.0000 N   0  0  0  0  0  0  0  0  0  0  0  0
    6.2708   -3.2083    0.0000 C   0  0  0  0  0  0  0  0  0  0  0  0
    7.0958   -3.2083    0.0000 O   0  0  0  0  0  0  0  0  0  0  0  0
    5.7859   -2.5409    0.0000 N   0  0  0  0  0  0  0  0  0  0  0  0
    5.0013   -2.7958    0.0000 C   0  0  0  0  0  0  0  0  0  0  0  0
    4.2868   -2.3833    0.0000 C   0  0  0  0  0  0  0  0  0  0  0  0
    3.5723   -2.7958    0.0000 C   0  0  0  0  0  0  0  0  0  0  0  0
  1  2  1  0  0  0  0
  2  3  2  0  0  0  0
  2  4  1  0  0  0  0
  5  4  1  4  0  0  0
  5  6  2  0  0  0  0
  6  7  1  0  0  0  0
  8  7  2  0  0  0  0
  9  8  1  0  0  0  0
 10  9  2  0  0  0  0
 11 10  1  0  0  0  0
 12 11  2  0  0  0  0
  7 12  1  0  0  0  0
 12 13  1  0  0  0  0
 13 14  1  0  0  0  0
  4 15  1  0  0  0  0
 15 16  2  0  0  0  0
 15 17  1  0  0  0  0
 17 18  1  0  0  0  0
 19 18  2  0  0  0  0
 20 19  1  0  0  0  0
 20 21  1  0  0  0  0
 21 22  1  0  0  0  0
 22 23  2  0  0  0  0
 22 24  1  0  0  0  0
 24 25  1  0  0  0  0
 25 20  2  0  0  0  0
 26 25  1  0  0  0  0
 27 26  2  0  0  0  0
 18 27  1  0  0  0  0
M  END
> <RowID>
988

> <Original_SMILES>
CC(=O)C(N=NC1=CC=CC=C1OC)C(=O)NC1=CC2NC(=O)NC=2C=C1

> <Canonical_QSARr>
CC(=O)C(N=NC1=CC=CC=C1OC)C(=O)NC1=CC2NC(=O)NC=2C=C1

> <InChI_Code_QSARr>
InChI=1S/C18H17N5O4/c1-10(24)16(23-22-13-5-3-4-6-15(13)27-2)17(25)19-11-7-8-12-14(9-11)21-18(26)20-12/h3-9,16H,1-2H3,(H,19,25)(H2,20,21,26)

> <InChI Key_QSARr>
BWCSCOGVOJAQRL-UHFFFAOYSA-N

> <Salt_Solvent>


> <Salt_Solvent_ID>
0

> <Number of connected components>
1

$$$$
Molecule_989
  Mrv2316 01072400032D          

 33 36  0  0  0  0            999 V2000
    2.5665   -3.6376    0.0000 C   0  0  0  0  0  0  0  0  0  0  0  0
    2.0816   -2.9701    0.0000 O   0  0  0  0  0  0  0  0  0  0  0  0
    1.2611   -3.0564    0.0000 C   0  0  0  0  0  0  0  0  0  0  0  0
    0.9256   -3.8101    0.0000 C   0  0  0  0  0  0  0  0  0  0  0  0
    0.1051   -3.8963    0.0000 C   0  0  0  0  0  0  0  0  0  0  0  0
   -0.2305   -4.6500    0.0000 N   0  0  0  0  0  0  0  0  0  0  0  0
    0.2545   -5.3174    0.0000 C   0  0  0  0  0  0  0  0  0  0  0  0
   -0.0811   -6.0711    0.0000 C   0  0  0  0  0  0  0  0  0  0  0  0
   -1.0509   -4.7362    0.0000 C   0  0  0  0  0  0  0  0  0  0  0  0
   -1.3865   -5.4899    0.0000 C   0  0  0  0  0  0  0  0  0  0  0  0
   -0.3798   -3.2289    0.0000 C   0  0  0  0  0  0  0  0  0  0  0  0
   -0.0443   -2.4752    0.0000 C   0  0  0  0  0  0  0  0  0  0  0  0
    0.7762   -2.3889    0.0000 C   0  0  0  0  0  0  0  0  0  0  0  0
    1.1118   -1.6353    0.0000 C   0  0  0  0  0  0  0  0  0  0  0  0
    0.6268   -0.9678    0.0000 C   0  0  0  0  0  0  0  0  0  0  0  0
    0.8818   -0.1832    0.0000 O   0  0  0  0  0  0  0  0  0  0  0  0
    0.2143    0.3017    0.0000 C   0  0  0  0  0  0  0  0  0  0  0  0
    0.2143    1.1267    0.0000 N   0  0  0  0  0  0  0  0  0  0  0  0
    0.9288    1.5392    0.0000 C   0  0  0  0  0  0  0  0  0  0  0  0
    1.6433    1.1267    0.0000 C   0  0  0  0  0  0  0  0  0  0  0  0
    2.3578    1.5392    0.0000 C   0  0  0  0  0  0  0  0  0  0  0  0
    2.3578    2.3642    0.0000 C   0  0  0  0  0  0  0  0  0  0  0  0
    1.6433    2.7767    0.0000 C   0  0  0  0  0  0  0  0  0  0  0  0
    0.9288    2.3642    0.0000 C   0  0  0  0  0  0  0  0  0  0  0  0
   -0.4531   -0.1832    0.0000 N   0  0  0  0  0  0  0  0  0  0  0  0
   -1.2377    0.0717    0.0000 C   0  0  0  0  0  0  0  0  0  0  0  0
   -1.4092    0.8787    0.0000 C   0  0  0  0  0  0  0  0  0  0  0  0
   -2.1939    1.1336    0.0000 C   0  0  0  0  0  0  0  0  0  0  0  0
   -2.8070    0.5816    0.0000 C   0  0  0  0  0  0  0  0  0  0  0  0
   -2.6354   -0.2254    0.0000 C   0  0  0  0  0  0  0  0  0  0  0  0
   -1.8508   -0.4803    0.0000 C   0  0  0  0  0  0  0  0  0  0  0  0
   -0.1982   -0.9678    0.0000 C   0  0  0  0  0  0  0  0  0  0  0  0
   -0.6831   -1.6353    0.0000 O   0  0  0  0  0  0  0  0  0  0  0  0
  1  2  1  0  0  0  0
  2  3  1  0  0  0  0
  4  3  1  0  0  0  0
  5  4  2  0  0  0  0
  5  6  1  0  0  0  0
  6  7  1  0  0  0  0
  7  8  1  0  0  0  0
  6  9  1  0  0  0  0
  9 10  1  0  0  0  0
 11  5  1  0  0  0  0
 12 11  2  0  0  0  0
 13 12  1  0  0  0  0
  3 13  2  0  0  0  0
 14 13  1  4  0  0  0
 14 15  2  0  0  0  0
 16 15  1  0  0  0  0
 17 16  1  0  0  0  0
 17 18  2  0  0  0  0
 18 19  1  4  0  0  0
 20 19  1  0  0  0  0
 21 20  1  0  0  0  0
 22 21  1  0  0  0  0
 23 22  1  0  0  0  0
 24 23  1  0  0  0  0
 19 24  1  0  0  0  0
 25 17  1  0  0  0  0
 25 26  1  0  0  0  0
 27 26  1  0  0  0  0
 28 27  1  0  0  0  0
 29 28  1  0  0  0  0
 30 29  1  0  0  0  0
 31 30  1  0  0  0  0
 26 31  1  0  0  0  0
 32 25  1  0  0  0  0
 15 32  1  0  0  0  0
 32 33  2  0  0  0  0
M  END
> <RowID>
989

> <Original_SMILES>
COC1C=C(C=CC=1C=C1OC(=NC2CCCCC2)N(C2CCCCC2)C1=O)N(CC)CC

> <Canonical_QSARr>
COC1C=C(C=CC=1C=C1OC(=NC2CCCCC2)N(C2CCCCC2)C1=O)N(CC)CC

> <InChI_Code_QSARr>
InChI=1S/C27H39N3O3/c1-4-29(5-2)23-17-16-20(24(19-23)32-3)18-25-26(31)30(22-14-10-7-11-15-22)27(33-25)28-21-12-8-6-9-13-21/h16-19,21-22H,4-15H2,1-3H3

> <InChI Key_QSARr>
OKKVLWNVTCNEPO-UHFFFAOYSA-N

> <Salt_Solvent>


> <Salt_Solvent_ID>
0

> <Number of connected components>
1

$$$$
Molecule_991
  Mrv2316 01072400032D          

 11 10  0  0  0  0            999 V2000
    1.0461    1.4289    0.0000 C   0  0  0  0  0  0  0  0  0  0  0  0
    1.7605    1.8414    0.0000 C   0  0  0  0  0  0  0  0  0  0  0  0
    2.4750    1.4289    0.0000 C   0  0  0  0  0  0  0  0  0  0  0  0
    3.1895    1.8414    0.0000 C   0  0  0  0  0  0  0  0  0  0  0  0
    3.9039    1.4289    0.0000 C   0  0  0  0  0  0  0  0  0  0  0  0
    3.9039    0.6039    0.0000 C   0  0  0  0  0  0  0  0  0  0  0  0
    4.6184    0.1914    0.0000 C   0  0  0  0  0  0  0  0  0  0  0  0
    4.6184    1.8414    0.0000 C   0  0  0  0  0  0  0  0  0  0  0  0
    4.6184    2.6664    0.0000 O   0  0  0  0  0  0  0  0  0  0  0  0
    5.3329    1.4289    0.0000 O   0  0  0  0  0  0  0  0  0  0  0  0
    6.0474    1.8414    0.0000 C   0  0  0  0  0  0  0  0  0  0  0  0
  1  2  1  0  0  0  0
  2  3  1  0  0  0  0
  3  4  1  0  0  0  0
  4  5  1  0  0  0  0
  5  6  1  0  0  0  0
  6  7  1  0  0  0  0
  5  8  1  0  0  0  0
  8  9  2  0  0  0  0
  8 10  1  0  0  0  0
 10 11  1  0  0  0  0
M  END
> <RowID>
991

> <Original_SMILES>
CCCCC(CC)C(=O)OC

> <Canonical_QSARr>
CCCCC(CC)C(=O)OC

> <InChI_Code_QSARr>
InChI=1S/C9H18O2/c1-4-6-7-8(5-2)9(10)11-3/h8H,4-7H2,1-3H3

> <InChI Key_QSARr>
KICUISADAVMYCJ-UHFFFAOYSA-N

> <Salt_Solvent>


> <Salt_Solvent_ID>
0

> <Number of connected components>
1

$$$$
Molecule_992
  Mrv2316 01072400032D          

 19 20  0  0  0  0            999 V2000
    3.4960    5.6645    0.0000 C   0  0  0  0  0  0  0  0  0  0  0  0
    2.7815    6.0770    0.0000 C   0  0  0  0  0  0  0  0  0  0  0  0
    2.0671    5.6645    0.0000 O   0  0  0  0  0  0  0  0  0  0  0  0
    1.3526    6.0770    0.0000 C   0  0  0  0  0  0  0  0  0  0  0  0
    1.3526    6.9020    0.0000 O   0  0  0  0  0  0  0  0  0  0  0  0
    0.6381    5.6645    0.0000 C   0  0  0  0  0  0  0  0  0  0  0  0
    0.2256    6.3790    0.0000 C   0  0  0  0  0  0  0  0  0  0  0  0
    1.0506    4.9500    0.0000 C   0  0  0  0  0  0  0  0  0  0  0  0
   -0.0764    5.2520    0.0000 C   0  0  0  0  0  0  0  0  0  0  0  0
   -0.7908    5.6645    0.0000 C   0  0  0  0  0  0  0  0  0  0  0  0
   -1.5053    5.2520    0.0000 C   0  0  0  0  0  0  0  0  0  0  0  0
   -1.5053    4.4270    0.0000 C   0  0  0  0  0  0  0  0  0  0  0  0
   -2.2198    4.0145    0.0000 C   0  0  0  0  0  0  0  0  0  0  0  0
   -2.9342    4.4270    0.0000 O   0  0  0  0  0  0  0  0  0  0  0  0
   -2.2198    3.1895    0.0000 C   0  0  0  0  0  0  0  0  0  0  0  0
   -2.6323    2.4750    0.0000 C   0  0  0  0  0  0  0  0  0  0  0  0
   -1.8073    2.4750    0.0000 C   0  0  0  0  0  0  0  0  0  0  0  0
   -0.7908    4.0145    0.0000 C   0  0  0  0  0  0  0  0  0  0  0  0
   -0.0764    4.4270    0.0000 C   0  0  0  0  0  0  0  0  0  0  0  0
  1  2  1  0  0  0  0
  2  3  1  0  0  0  0
  3  4  1  0  0  0  0
  4  5  2  0  0  0  0
  4  6  1  0  0  0  0
  6  7  1  0  0  0  0
  6  8  1  0  0  0  0
  6  9  1  0  0  0  0
 10  9  1  0  0  0  0
 11 10  2  0  0  0  0
 12 11  1  0  0  0  0
 12 13  1  0  0  0  0
 13 14  2  0  0  0  0
 13 15  1  0  0  0  0
 16 15  1  0  0  0  0
 17 16  1  0  0  0  0
 15 17  1  0  0  0  0
 18 12  2  0  0  0  0
 19 18  1  0  0  0  0
  9 19  2  0  0  0  0
M  END
> <RowID>
992

> <Original_SMILES>
CCOC(=O)C(C)(C)C1C=CC(=CC=1)C(=O)C1CC1

> <Canonical_QSARr>
CCOC(=O)C(C)(C)C1C=CC(=CC=1)C(=O)C1CC1

> <InChI_Code_QSARr>
InChI=1S/C16H20O3/c1-4-19-15(18)16(2,3)13-9-7-12(8-10-13)14(17)11-5-6-11/h7-11H,4-6H2,1-3H3

> <InChI Key_QSARr>
PLUQJOSTYJDNDS-UHFFFAOYSA-N

> <Salt_Solvent>


> <Salt_Solvent_ID>
0

> <Number of connected components>
1

$$$$
Molecule_993
  Mrv2316 01072400032D          

 12 12  0  0  0  0            999 V2000
   -0.7145   -0.9625    0.0000 C   0  0  0  0  0  0  0  0  0  0  0  0
    0.0000   -0.5500    0.0000 C   0  0  0  0  0  0  0  0  0  0  0  0
    0.7145   -0.9625    0.0000 O   0  0  0  0  0  0  0  0  0  0  0  0
    0.0000    0.2750    0.0000 C   0  0  0  0  0  0  0  0  0  0  0  0
    0.7145    0.6875    0.0000 C   0  0  0  0  0  0  0  0  0  0  0  0
    0.7145    1.5125    0.0000 C   0  0  0  0  0  0  0  0  0  0  0  0
    1.4289    1.9250    0.0000 C   0  0  0  0  0  0  0  0  0  0  0  0
    1.4289    2.7500    0.0000 C   0  0  0  0  0  0  0  0  0  0  0  0
    0.7145    3.1625    0.0000 C   0  0  0  0  0  0  0  0  0  0  0  0
    0.7145    3.9875    0.0000 O   0  0  0  0  0  0  0  0  0  0  0  0
    0.0000    2.7500    0.0000 C   0  0  0  0  0  0  0  0  0  0  0  0
    0.0000    1.9250    0.0000 C   0  0  0  0  0  0  0  0  0  0  0  0
  1  2  1  0  0  0  0
  2  3  2  0  0  0  0
  2  4  1  0  0  0  0
  4  5  1  0  0  0  0
  5  6  1  0  0  0  0
  7  6  1  0  0  0  0
  8  7  2  0  0  0  0
  9  8  1  0  0  0  0
  9 10  1  0  0  0  0
 11  9  2  0  0  0  0
 12 11  1  0  0  0  0
  6 12  2  0  0  0  0
M  END
> <RowID>
993

> <Original_SMILES>
CC(=O)CCC1C=CC(O)=CC=1

> <Canonical_QSARr>
CC(=O)CCC1C=CC(O)=CC=1

> <InChI_Code_QSARr>
InChI=1S/C10H12O2/c1-8(11)2-3-9-4-6-10(12)7-5-9/h4-7,12H,2-3H2,1H3

> <InChI Key_QSARr>
NJGBTKGETPDVIK-UHFFFAOYSA-N

> <Salt_Solvent>


> <Salt_Solvent_ID>
0

> <Number of connected components>
1

$$$$
Molecule_994
  Mrv2316 01072400032D          

 15 16  0  0  0  0            999 V2000
   -0.8849    2.4750    0.0000 C   0  0  0  0  0  0  0  0  0  0  0  0
   -0.8849    1.6500    0.0000 C   0  0  0  0  0  0  0  0  0  0  0  0
   -1.5993    1.2375    0.0000 C   0  0  0  0  0  0  0  0  0  0  0  0
   -0.1704    1.2375    0.0000 C   0  0  0  0  0  0  0  0  0  0  0  0
    0.5441    1.6500    0.0000 C   0  0  0  0  0  0  0  0  0  0  0  0
    0.7503    0.8250    0.0000 C   0  0  0  0  0  0  0  0  0  0  0  0
    0.5441    0.0000    0.0000 C   0  0  0  0  0  0  0  0  0  0  0  0
    1.2585    0.4125    0.0000 C   0  0  0  0  0  0  0  0  0  0  0  0
    1.2585    1.2375    0.0000 C   0  0  0  0  0  0  0  0  0  0  0  0
   -0.1704    0.4125    0.0000 C   0  0  0  0  0  0  0  0  0  0  0  0
   -0.8849   -0.0000    0.0000 C   0  0  0  0  0  0  0  0  0  0  0  0
   -1.5993    0.4125    0.0000 O   0  0  0  0  0  0  0  0  0  0  0  0
   -0.8849   -0.8250    0.0000 O   0  0  0  0  0  0  0  0  0  0  0  0
   -1.5993   -1.2375    0.0000 C   0  0  0  0  0  0  0  0  0  0  0  0
   -1.5993   -2.0625    0.0000 C   0  0  0  0  0  0  0  0  0  0  0  0
  1  2  1  0  0  0  0
  2  3  1  0  0  0  0
  2  4  1  0  0  0  0
  5  4  1  0  0  0  0
  5  6  1  0  0  0  0
  6  7  1  0  0  0  0
  7  8  1  0  0  0  0
  8  9  2  0  0  0  0
  9  5  1  0  0  0  0
 10  7  1  0  0  0  0
  4 10  1  0  0  0  0
 10 11  1  0  0  0  0
 11 12  2  0  0  0  0
 11 13  1  0  0  0  0
 13 14  1  0  0  0  0
 14 15  1  0  0  0  0
M  END
> <RowID>
994

> <Original_SMILES>
CC(C)C1C2CC(C=C2)C1C(=O)OCC

> <Canonical_QSARr>
CC(C)C1C2CC(C=C2)C1C(=O)OCC

> <InChI_Code_QSARr>
InChI=1S/C13H20O2/c1-4-15-13(14)12-10-6-5-9(7-10)11(12)8(2)3/h5-6,8-12H,4,7H2,1-3H3

> <InChI Key_QSARr>
HJEFAEQTNTXLHL-UHFFFAOYSA-N

> <Salt_Solvent>


> <Salt_Solvent_ID>
0

> <Number of connected components>
1

$$$$
Molecule_995
  Mrv2316 01072400032D          

  8  8  0  0  0  0            999 V2000
    1.2503    2.4750    0.0000 C   0  0  0  0  0  0  0  0  0  0  0  0
    0.5359    2.0625    0.0000 C   0  0  0  0  0  0  0  0  0  0  0  0
    0.5359    1.2375    0.0000 C   0  0  0  0  0  0  0  0  0  0  0  0
   -0.1786    0.8250    0.0000 C   0  0  0  0  0  0  0  0  0  0  0  0
   -0.1786   -0.0000    0.0000 C   0  0  0  0  0  0  0  0  0  0  0  0
    0.5359   -0.4125    0.0000 C   0  0  0  0  0  0  0  0  0  0  0  0
    1.2503    0.0000    0.0000 C   0  0  0  0  0  0  0  0  0  0  0  0
    1.2503    0.8250    0.0000 C   0  0  0  0  0  0  0  0  0  0  0  0
  1  2  2  0  0  0  0
  2  3  1  0  0  0  0
  4  3  1  0  0  0  0
  5  4  1  0  0  0  0
  6  5  2  0  0  0  0
  7  6  1  0  0  0  0
  8  7  1  0  0  0  0
  3  8  1  0  0  0  0
M  END
> <RowID>
995

> <Original_SMILES>
C=CC1CC=CCC1

> <Canonical_QSARr>
C=CC1CC=CCC1

> <InChI_Code_QSARr>
InChI=1S/C8H12/c1-2-8-6-4-3-5-7-8/h2-4,8H,1,5-7H2

> <InChI Key_QSARr>
BBDKZWKEPDTENS-UHFFFAOYSA-N

> <Salt_Solvent>


> <Salt_Solvent_ID>
0

> <Number of connected components>
1

$$$$
Molecule_996
  Mrv2316 01072400032D          

 10  9  0  0  0  0            999 V2000
    1.0461    1.4289    0.0000 C   0  0  0  0  0  0  0  0  0  0  0  0
    1.7605    1.8414    0.0000 C   0  0  0  0  0  0  0  0  0  0  0  0
    2.4750    1.4289    0.0000 O   0  0  0  0  0  0  0  0  0  0  0  0
    3.1895    1.8414    0.0000 C   0  0  0  0  0  0  0  0  0  0  0  0
    3.1895    2.6664    0.0000 O   0  0  0  0  0  0  0  0  0  0  0  0
    3.9039    1.4289    0.0000 C   0  0  0  0  0  0  0  0  0  0  0  0
    3.9039    0.6039    0.0000 C   0  0  0  0  0  0  0  0  0  0  0  0
    4.6184    1.8414    0.0000 C   0  0  0  0  0  0  0  0  0  0  0  0
    5.3329    1.4289    0.0000 C   0  0  0  0  0  0  0  0  0  0  0  0
    6.0474    1.8414    0.0000 C   0  0  0  0  0  0  0  0  0  0  0  0
  1  2  1  0  0  0  0
  2  3  1  0  0  0  0
  3  4  1  0  0  0  0
  4  5  2  0  0  0  0
  4  6  1  0  0  0  0
  6  7  1  0  0  0  0
  6  8  1  0  0  0  0
  8  9  1  0  0  0  0
  9 10  1  0  0  0  0
M  END
> <RowID>
996

> <Original_SMILES>
CCOC(=O)C(C)CCC

> <Canonical_QSARr>
CCOC(=O)C(C)CCC

> <InChI_Code_QSARr>
InChI=1S/C8H16O2/c1-4-6-7(3)8(9)10-5-2/h7H,4-6H2,1-3H3

> <InChI Key_QSARr>
HZPKNSYIDSNZKW-UHFFFAOYSA-N

> <Salt_Solvent>


> <Salt_Solvent_ID>
0

> <Number of connected components>
1

$$$$
Molecule_997
  Mrv2316 01072400032D          

 20 19  0  0  0  0            999 V2000
    5.9961    4.2868    0.0000 C   0  0  0  0  0  0  0  0  0  0  0  0
    6.7105    4.6993    0.0000 C   0  0  0  0  0  0  0  0  0  0  0  0
    6.7105    5.5243    0.0000 C   0  0  0  0  0  0  0  0  0  0  0  0
    7.4250    4.2868    0.0000 C   0  0  0  0  0  0  0  0  0  0  0  0
    7.4250    3.4618    0.0000 O   0  0  0  0  0  0  0  0  0  0  0  0
    8.1395    4.6993    0.0000 O   0  0  0  0  0  0  0  0  0  0  0  0
    8.8540    4.2868    0.0000 C   0  0  0  0  0  0  0  0  0  0  0  0
    9.5684    4.6993    0.0000 C   0  0  0  0  0  0  0  0  0  0  0  0
   10.2829    4.2868    0.0000 O   0  0  0  0  0  0  0  0  0  0  0  0
   10.9974    4.6993    0.0000 C   0  0  0  0  0  0  0  0  0  0  0  0
   11.7118    4.2868    0.0000 C   0  0  0  0  0  0  0  0  0  0  0  0
   12.4263    4.6993    0.0000 O   0  0  0  0  0  0  0  0  0  0  0  0
   13.1408    4.2868    0.0000 C   0  0  0  0  0  0  0  0  0  0  0  0
   13.8552    4.6993    0.0000 C   0  0  0  0  0  0  0  0  0  0  0  0
   14.5697    4.2868    0.0000 O   0  0  0  0  0  0  0  0  0  0  0  0
   15.2842    4.6993    0.0000 C   0  0  0  0  0  0  0  0  0  0  0  0
   15.2842    5.5243    0.0000 O   0  0  0  0  0  0  0  0  0  0  0  0
   15.9987    4.2868    0.0000 C   0  0  0  0  0  0  0  0  0  0  0  0
   16.7131    4.6993    0.0000 C   0  0  0  0  0  0  0  0  0  0  0  0
   15.9987    3.4618    0.0000 C   0  0  0  0  0  0  0  0  0  0  0  0
  1  2  1  0  0  0  0
  2  3  2  0  0  0  0
  2  4  1  0  0  0  0
  4  5  2  0  0  0  0
  4  6  1  0  0  0  0
  6  7  1  0  0  0  0
  7  8  1  0  0  0  0
  8  9  1  0  0  0  0
  9 10  1  0  0  0  0
 10 11  1  0  0  0  0
 11 12  1  0  0  0  0
 12 13  1  0  0  0  0
 13 14  1  0  0  0  0
 14 15  1  0  0  0  0
 15 16  1  0  0  0  0
 16 17  2  0  0  0  0
 16 18  1  0  0  0  0
 18 19  1  0  0  0  0
 18 20  2  0  0  0  0
M  END
> <RowID>
997

> <Original_SMILES>
CC(=C)C(=O)OCCOCCOCCOC(=O)C(C)=C

> <Canonical_QSARr>
CC(=C)C(=O)OCCOCCOCCOC(=O)C(C)=C

> <InChI_Code_QSARr>
InChI=1S/C14H22O6/c1-11(2)13(15)19-9-7-17-5-6-18-8-10-20-14(16)12(3)4/h1,3,5-10H2,2,4H3

> <InChI Key_QSARr>
HWSSEYVMGDIFMH-UHFFFAOYSA-N

> <Salt_Solvent>


> <Salt_Solvent_ID>
0

> <Number of connected components>
1

$$$$
Molecule_998
  Mrv2316 01072400032D          

 36 36  0  0  0  0            999 V2000
   10.2297  -11.0321    0.0000 O   0  0  0  0  0  0  0  0  0  0  0  0
   10.9442  -10.6196    0.0000 C   0  0  0  0  0  0  0  0  0  0  0  0
   10.9442   -9.7946    0.0000 O   0  0  0  0  0  0  0  0  0  0  0  0
   11.6587  -11.0321    0.0000 C   0  0  0  0  0  0  0  0  0  0  0  0
   12.3731  -10.6196    0.0000 C   0  0  0  0  0  0  0  0  0  0  0  0
   13.0876  -11.0321    0.0000 C   0  0  0  0  0  0  0  0  0  0  0  0
   13.8021  -10.6196    0.0000 C   0  0  0  0  0  0  0  0  0  0  0  0
   14.5166  -11.0321    0.0000 C   0  0  0  0  0  0  0  0  0  0  0  0
   15.2310  -10.6196    0.0000 C   0  0  0  0  0  0  0  0  0  0  0  0
   15.9455  -11.0321    0.0000 C   0  0  0  0  0  0  0  0  0  0  0  0
   16.6600  -10.6196    0.0000 C   0  0  0  0  0  0  0  0  0  0  0  0
   17.3744  -11.0321    0.0000 C   0  0  0  0  0  0  0  0  0  0  0  0
   18.0889  -10.6196    0.0000 C   0  0  0  0  0  0  0  0  0  0  0  0
   18.8034  -11.0321    0.0000 C   0  0  0  0  0  0  0  0  0  0  0  0
   19.5179  -10.6196    0.0000 C   0  0  0  0  0  0  0  0  0  0  0  0
   20.2323  -11.0321    0.0000 C   0  0  0  0  0  0  0  0  0  0  0  0
   20.9468  -10.6196    0.0000 C   0  0  0  0  0  0  0  0  0  0  0  0
   21.6613  -11.0321    0.0000 C   0  0  0  0  0  0  0  0  0  0  0  0
   21.6613  -11.8571    0.0000 O   0  0  0  0  0  0  0  0  0  0  0  0
   22.3757  -10.6196    0.0000 N   0  0  0  0  0  0  0  0  0  0  0  0
   23.0902  -11.0321    0.0000 C   0  0  0  0  0  0  0  0  0  0  0  0
   23.8047  -10.6196    0.0000 C   0  0  0  0  0  0  0  0  0  0  0  0
   24.5191  -11.0321    0.0000 C   0  0  0  0  0  0  0  0  0  0  0  0
   25.2336  -10.6196    0.0000 C   0  0  0  0  0  0  0  0  0  0  0  0
   25.2336   -9.7946    0.0000 O   0  0  0  0  0  0  0  0  0  0  0  0
   25.9481  -11.0321    0.0000 O   0  0  0  0  0  0  0  0  0  0  0  0
   26.6626  -10.6196    0.0000 N   0  0  0  0  0  0  0  0  0  0  0  0
   27.4162  -10.9551    0.0000 C   0  0  0  0  0  0  0  0  0  0  0  0
   27.5878  -11.7621    0.0000 O   0  0  0  0  0  0  0  0  0  0  0  0
   27.9683  -10.3421    0.0000 C   0  0  0  0  0  0  0  0  0  0  0  0
   27.5558   -9.6276    0.0000 C   0  0  0  0  0  0  0  0  0  0  0  0
   26.7488   -9.7991    0.0000 C   0  0  0  0  0  0  0  0  0  0  0  0
   26.1357   -9.2471    0.0000 O   0  0  0  0  0  0  0  0  0  0  0  0
   23.0902  -11.8571    0.0000 C   0  0  0  0  0  0  0  0  0  0  0  0
   23.8047  -12.2696    0.0000 O   0  0  0  0  0  0  0  0  0  0  0  0
   22.3757  -12.2696    0.0000 O   0  0  0  0  0  0  0  0  0  0  0  0
  1  2  1  0  0  0  0
  2  3  2  0  0  0  0
  2  4  1  0  0  0  0
  4  5  1  0  0  0  0
  5  6  1  0  0  0  0
  6  7  1  0  0  0  0
  7  8  1  0  0  0  0
  8  9  1  0  0  0  0
  9 10  1  0  0  0  0
 10 11  1  0  0  0  0
 11 12  1  0  0  0  0
 12 13  1  0  0  0  0
 13 14  1  0  0  0  0
 14 15  1  0  0  0  0
 15 16  1  0  0  0  0
 16 17  1  0  0  0  0
 17 18  1  0  0  0  0
 18 19  2  0  0  0  0
 18 20  1  0  0  0  0
 20 21  1  0  0  0  0
 21 22  1  0  0  0  0
 22 23  1  0  0  0  0
 23 24  1  0  0  0  0
 24 25  2  0  0  0  0
 24 26  1  0  0  0  0
 26 27  1  0  0  0  0
 28 27  1  0  0  0  0
 28 29  2  0  0  0  0
 30 28  1  0  0  0  0
 31 30  1  0  0  0  0
 32 31  1  0  0  0  0
 27 32  1  0  0  0  0
 32 33  2  0  0  0  0
 21 34  1  0  0  0  0
 34 35  1  0  0  0  0
 34 36  2  0  0  0  0
M  END
> <RowID>
998

> <Original_SMILES>
OC(=O)CCCCCCCCCCCCCCC(=O)NC(CCC(=O)ON1C(=O)CCC1=O)C(O)=O

> <Canonical_QSARr>
OC(=O)CCCCCCCCCCCCCCC(=O)NC(CCC(=O)ON1C(=O)CCC1=O)C(O)=O

> <InChI_Code_QSARr>
InChI=1S/C25H40N2O9/c28-20(13-11-9-7-5-3-1-2-4-6-8-10-12-14-23(31)32)26-19(25(34)35)15-18-24(33)36-27-21(29)16-17-22(27)30/h19H,1-18H2,(H,26,28)(H,31,32)(H,34,35)

> <InChI Key_QSARr>
VIODGMQNVVFBFM-UHFFFAOYSA-N

> <Salt_Solvent>


> <Salt_Solvent_ID>
0

> <Number of connected components>
1

$$$$
Molecule_999
  Mrv2316 01072400032D          

 13 14  0  0  0  0            999 V2000
    3.0228   -4.4106    0.0000 C   0  0  0  0  0  0  0  0  0  0  0  0
    2.3083   -3.9981    0.0000 C   0  0  0  0  0  0  0  0  0  0  0  0
    2.3083   -3.1731    0.0000 C   0  0  0  0  0  0  0  0  0  0  0  0
    1.5938   -2.7606    0.0000 C   0  0  0  0  0  0  0  0  0  0  0  0
    1.5938   -1.9356    0.0000 C   0  0  0  0  0  0  0  0  0  0  0  0
    2.3083   -1.5231    0.0000 C   0  0  0  0  0  0  0  0  0  0  0  0
    2.3083   -0.6981    0.0000 C   0  0  0  0  0  0  0  0  0  0  0  0
    1.5938   -0.2856    0.0000 C   0  0  0  0  0  0  0  0  0  0  0  0
    0.8794   -0.6981    0.0000 C   0  0  0  0  0  0  0  0  0  0  0  0
    0.8794   -1.5231    0.0000 C   0  0  0  0  0  0  0  0  0  0  0  0
    0.8794   -3.1731    0.0000 O   0  0  0  0  0  0  0  0  0  0  0  0
    0.8794   -3.9981    0.0000 C   0  0  0  0  0  0  0  0  0  0  0  0
    1.5938   -4.4106    0.0000 C   0  0  0  0  0  0  0  0  0  0  0  0
  1  2  1  0  0  0  0
  3  2  1  0  0  0  0
  4  3  1  0  0  0  0
  4  5  1  0  0  0  0
  6  5  1  0  0  0  0
  7  6  2  0  0  0  0
  8  7  1  0  0  0  0
  9  8  2  0  0  0  0
 10  9  1  0  0  0  0
  5 10  2  0  0  0  0
 11  4  1  0  0  0  0
 12 11  1  0  0  0  0
 13 12  1  0  0  0  0
  2 13  1  0  0  0  0
M  END
> <RowID>
999

> <Original_SMILES>
CC1CC(OCC1)C1C=CC=CC=1

> <Canonical_QSARr>
CC1CC(OCC1)C1C=CC=CC=1

> <InChI_Code_QSARr>
InChI=1S/C12H16O/c1-10-7-8-13-12(9-10)11-5-3-2-4-6-11/h2-6,10,12H,7-9H2,1H3

> <InChI Key_QSARr>
GDAVABNCFOTAOD-UHFFFAOYSA-N

> <Salt_Solvent>


> <Salt_Solvent_ID>
0

> <Number of connected components>
1

$$$$
Molecule_1000
  Mrv2316 01072400032D          

  1  0  0  0  0  0            999 V2000
    0.0000    0.0000    0.0000 C   0  0  0  0  0  0  0  0  0  0  0  0
M  END
> <RowID>
1000

> <Original_SMILES>
C.OS(O)(=O)=O

> <Canonical_QSARr>
C

> <InChI_Code_QSARr>
InChI=1S/CH4/h1H4

> <InChI Key_QSARr>
VNWKTOKETHGBQD-UHFFFAOYSA-N

> <Salt_Solvent>
OS(=O)(=O)O

> <Salt_Solvent_ID>
2042

> <Number of connected components>
2

$$$$
Molecule_1001
  Mrv2316 01072400032D          

 12 12  0  0  0  0            999 V2000
    2.2029   -1.1344    0.0000 C   0  0  0  0  0  0  0  0  0  0  0  0
    2.2029   -0.3094    0.0000 O   0  0  0  0  0  0  0  0  0  0  0  0
    1.4885    0.1031    0.0000 C   0  0  0  0  0  0  0  0  0  0  0  0
    1.4885    0.9281    0.0000 C   0  0  0  0  0  0  0  0  0  0  0  0
    0.7740    1.3406    0.0000 C   0  0  0  0  0  0  0  0  0  0  0  0
    0.7740    2.1656    0.0000 N   0  0  0  0  0  0  0  0  0  0  0  0
    0.0595    0.9281    0.0000 C   0  0  0  0  0  0  0  0  0  0  0  0
   -0.6549    1.3406    0.0000 O   0  0  0  0  0  0  0  0  0  0  0  0
   -1.3694    0.9281    0.0000 C   0  0  0  0  0  0  0  0  0  0  0  0
    0.0595    0.1031    0.0000 C   0  0  0  0  0  0  0  0  0  0  0  0
    0.7740   -0.3094    0.0000 C   0  0  0  0  0  0  0  0  0  0  0  0
    0.7740   -1.1344    0.0000 Cl  0  0  0  0  0  0  0  0  0  0  0  0
  1  2  1  0  0  0  0
  2  3  1  0  0  0  0
  4  3  2  0  0  0  0
  5  4  1  0  0  0  0
  5  6  1  0  0  0  0
  7  5  2  0  0  0  0
  7  8  1  0  0  0  0
  8  9  1  0  0  0  0
 10  7  1  0  0  0  0
 11 10  2  0  0  0  0
  3 11  1  0  0  0  0
 11 12  1  0  0  0  0
M  END
> <RowID>
1001

> <Original_SMILES>
COC1=CC(N)=C(C=C1Cl)OC

> <Canonical_QSARr>
COC1=CC(N)=C(C=C1Cl)OC

> <InChI_Code_QSARr>
InChI=1S/C8H10ClNO2/c1-11-7-4-6(10)8(12-2)3-5(7)9/h3-4H,10H2,1-2H3

> <InChI Key_QSARr>
YGUFQYGSBVXPMC-UHFFFAOYSA-N

> <Salt_Solvent>


> <Salt_Solvent_ID>
0

> <Number of connected components>
1

$$$$
Molecule_1002
  Mrv2316 01072400032D          

 30 31  0  0  0  0            999 V2000
    2.7626   -3.1350    0.0000 C   0  0  0  0  0  0  0  0  0  0  0  0
    2.0482   -2.7225    0.0000 C   0  0  0  0  0  0  0  0  0  0  0  0
    2.4607   -2.0080    0.0000 C   0  0  0  0  0  0  0  0  0  0  0  0
    1.6357   -3.4370    0.0000 C   0  0  0  0  0  0  0  0  0  0  0  0
    1.3337   -2.3100    0.0000 C   0  0  0  0  0  0  0  0  0  0  0  0
    1.3337   -1.4850    0.0000 C   0  0  0  0  0  0  0  0  0  0  0  0
    0.6192   -1.0725    0.0000 C   0  0  0  0  0  0  0  0  0  0  0  0
    0.6192   -0.2475    0.0000 C   0  0  0  0  0  0  0  0  0  0  0  0
    0.6192    0.5775    0.0000 C   0  0  0  0  0  0  0  0  0  0  0  0
   -0.2058   -0.2475    0.0000 C   0  0  0  0  0  0  0  0  0  0  0  0
    1.4442   -0.2475    0.0000 C   0  0  0  0  0  0  0  0  0  0  0  0
   -0.0953   -1.4850    0.0000 C   0  0  0  0  0  0  0  0  0  0  0  0
   -0.0953   -2.3100    0.0000 C   0  0  0  0  0  0  0  0  0  0  0  0
   -0.8097   -2.7225    0.0000 C   0  0  0  0  0  0  0  0  0  0  0  0
   -1.5242   -2.3100    0.0000 C   0  0  0  0  0  0  0  0  0  0  0  0
   -2.2387   -2.7225    0.0000 C   0  0  0  0  0  0  0  0  0  0  0  0
   -2.9531   -2.3100    0.0000 C   0  0  0  0  0  0  0  0  0  0  0  0
   -3.6676   -1.8975    0.0000 C   0  0  0  0  0  0  0  0  0  0  0  0
   -2.5406   -1.5955    0.0000 C   0  0  0  0  0  0  0  0  0  0  0  0
   -3.3656   -3.0245    0.0000 C   0  0  0  0  0  0  0  0  0  0  0  0
   -2.2387   -3.5475    0.0000 C   0  0  0  0  0  0  0  0  0  0  0  0
   -1.5242   -3.9600    0.0000 C   0  0  0  0  0  0  0  0  0  0  0  0
   -1.5242   -4.7850    0.0000 C   0  0  0  0  0  0  0  0  0  0  0  0
   -1.5242   -5.6100    0.0000 C   0  0  0  0  0  0  0  0  0  0  0  0
   -0.6992   -4.7850    0.0000 C   0  0  0  0  0  0  0  0  0  0  0  0
   -2.3492   -4.7850    0.0000 C   0  0  0  0  0  0  0  0  0  0  0  0
   -0.8097   -3.5475    0.0000 C   0  0  0  0  0  0  0  0  0  0  0  0
   -0.0953   -3.9600    0.0000 O   0  0  0  0  0  0  0  0  0  0  0  0
    0.6192   -2.7225    0.0000 C   0  0  0  0  0  0  0  0  0  0  0  0
    0.6192   -3.5475    0.0000 O   0  0  0  0  0  0  0  0  0  0  0  0
  1  2  1  0  0  0  0
  2  3  1  0  0  0  0
  2  4  1  0  0  0  0
  2  5  1  0  0  0  0
  6  5  1  0  0  0  0
  7  6  2  0  0  0  0
  7  8  1  0  0  0  0
  8  9  1  0  0  0  0
  8 10  1  0  0  0  0
  8 11  1  0  0  0  0
 12  7  1  0  0  0  0
 13 12  2  0  0  0  0
 13 14  1  0  0  0  0
 15 14  2  0  0  0  0
 16 15  1  0  0  0  0
 16 17  1  0  0  0  0
 17 18  1  0  0  0  0
 17 19  1  0  0  0  0
 17 20  1  0  0  0  0
 21 16  2  0  0  0  0
 22 21  1  0  0  0  0
 22 23  1  0  0  0  0
 23 24  1  0  0  0  0
 23 25  1  0  0  0  0
 23 26  1  0  0  0  0
 27 22  2  0  0  0  0
 14 27  1  0  0  0  0
 27 28  1  0  0  0  0
 29 13  1  0  0  0  0
  5 29  2  0  0  0  0
 29 30  1  0  0  0  0
M  END
> <RowID>
1002

> <Original_SMILES>
CC(C)(C)C1C=C(C=C(C2=CC(=CC(=C2O)C(C)(C)C)C(C)(C)C)C=1O)C(C)(C)C

> <Canonical_QSARr>
CC(C)(C)C1C=C(C=C(C2=CC(=CC(=C2O)C(C)(C)C)C(C)(C)C)C=1O)C(C)(C)C

> <InChI_Code_QSARr>
InChI=1S/C28H42O2/c1-25(2,3)17-13-19(23(29)21(15-17)27(7,8)9)20-14-18(26(4,5)6)16-22(24(20)30)28(10,11)12/h13-16,29-30H,1-12H3

> <InChI Key_QSARr>
GDGDLBOVIAWEAD-UHFFFAOYSA-N

> <Salt_Solvent>


> <Salt_Solvent_ID>
0

> <Number of connected components>
1

$$$$
Molecule_1003
  Mrv2316 01072400032D          

 21 20  0  0  0  0            999 V2000
    1.9030    7.9792    0.0000 C   0  0  0  0  0  0  0  0  0  0  0  0
    2.4750    8.5737    0.0000 C   0  0  0  0  0  0  0  0  0  0  0  0
    3.2758    8.3755    0.0000 C   0  0  0  0  0  0  0  0  0  0  0  0
    3.8479    8.9700    0.0000 C   0  0  0  0  0  0  0  0  0  0  0  0
    4.6487    8.7718    0.0000 C   0  0  0  0  0  0  0  0  0  0  0  0
    5.2208    9.3663    0.0000 C   0  0  0  0  0  0  0  0  0  0  0  0
    6.0216    9.1681    0.0000 C   0  0  0  0  0  0  0  0  0  0  0  0
    6.5936    9.7626    0.0000 C   0  0  0  0  0  0  0  0  0  0  0  0
    7.3945    9.5644    0.0000 C   0  0  0  0  0  0  0  0  0  0  0  0
    7.9665   10.1589    0.0000 C   0  0  0  0  0  0  0  0  0  0  0  0
    8.7674    9.9608    0.0000 C   0  0  0  0  0  0  0  0  0  0  0  0
    9.3394   10.5552    0.0000 C   0  0  0  0  0  0  0  0  0  0  0  0
   10.1403   10.3571    0.0000 N   0  0  0  0  0  0  0  0  0  0  0  0
   10.7123   10.9516    0.0000 C   0  0  0  0  0  0  0  0  0  0  0  0
   11.5131   10.7534    0.0000 C   0  0  0  0  0  0  0  0  0  0  0  0
   12.0852   11.3479    0.0000 C   0  0  0  0  0  0  0  0  0  0  0  0
   12.6572   11.9424    0.0000 N   0  0  0  0  0  0  0  0  0  0  0  0
   10.3691    9.5644    0.0000 C   0  0  0  0  0  0  0  0  0  0  0  0
   11.1699    9.3663    0.0000 C   0  0  0  0  0  0  0  0  0  0  0  0
   11.3987    8.5737    0.0000 C   0  0  0  0  0  0  0  0  0  0  0  0
   11.6276    7.7810    0.0000 N   0  0  0  0  0  0  0  0  0  0  0  0
  1  2  1  0  0  0  0
  2  3  1  0  0  0  0
  3  4  1  0  0  0  0
  4  5  1  0  0  0  0
  5  6  1  0  0  0  0
  6  7  1  0  0  0  0
  7  8  1  0  0  0  0
  8  9  1  0  0  0  0
  9 10  1  0  0  0  0
 10 11  1  0  0  0  0
 11 12  1  0  0  0  0
 12 13  1  0  0  0  0
 13 14  1  0  0  0  0
 14 15  1  0  0  0  0
 15 16  1  0  0  0  0
 16 17  3  0  0  0  0
 13 18  1  0  0  0  0
 18 19  1  0  0  0  0
 19 20  1  0  0  0  0
 20 21  3  0  0  0  0
M  END
> <RowID>
1003

> <Original_SMILES>
CCCCCCCCCCCCN(CCC#N)CCC#N

> <Canonical_QSARr>
CCCCCCCCCCCCN(CCC#N)CCC#N

> <InChI_Code_QSARr>
InChI=1S/C18H33N3/c1-2-3-4-5-6-7-8-9-10-11-16-21(17-12-14-19)18-13-15-20/h2-13,16-18H2,1H3

> <InChI Key_QSARr>
YDOOYJZNFQGRCN-UHFFFAOYSA-N

> <Salt_Solvent>


> <Salt_Solvent_ID>
0

> <Number of connected components>
1

$$$$
Molecule_1004
  Mrv2316 01072400032D          

 18 18  0  0  0  0            999 V2000
   -0.5557   -0.5500    0.0000 C   0  0  0  0  0  0  0  0  0  0  0  0
    0.1588   -0.1375    0.0000 C   0  0  0  0  0  0  0  0  0  0  0  0
    0.1588    0.6875    0.0000 C   0  0  0  0  0  0  0  0  0  0  0  0
    0.8732   -0.5500    0.0000 C   0  0  0  0  0  0  0  0  0  0  0  0
    0.8732   -1.3750    0.0000 C   0  0  0  0  0  0  0  0  0  0  0  0
    1.5877   -1.7875    0.0000 C   0  0  0  0  0  0  0  0  0  0  0  0
    2.3022   -1.3750    0.0000 C   0  0  0  0  0  0  0  0  0  0  0  0
    3.0167   -1.7875    0.0000 C   0  0  0  0  0  0  0  0  0  0  0  0
    2.3022   -0.5500    0.0000 C   0  0  0  0  0  0  0  0  0  0  0  0
    1.5877   -0.1375    0.0000 C   0  0  0  0  0  0  0  0  0  0  0  0
    1.5877    0.6875    0.0000 O   0  0  0  0  0  0  0  0  0  0  0  0
    2.3022    1.1000    0.0000 C   0  0  0  0  0  0  0  0  0  0  0  0
    2.3022    1.9250    0.0000 O   0  0  0  0  0  0  0  0  0  0  0  0
    3.0167    0.6875    0.0000 C   0  0  0  0  0  0  0  0  0  0  0  0
    3.0167   -0.1375    0.0000 O   0  0  0  0  0  0  0  0  0  0  0  0
    3.7311    1.1000    0.0000 N   0  0  0  0  0  0  0  0  0  0  0  0
    4.4456    0.6875    0.0000 C   0  0  0  0  0  0  0  0  0  0  0  0
    4.4456   -0.1375    0.0000 C   0  0  0  0  0  0  0  0  0  0  0  0
  1  2  1  0  0  0  0
  2  3  1  0  0  0  0
  2  4  1  0  0  0  0
  5  4  1  0  0  0  0
  6  5  1  0  0  0  0
  7  6  1  0  0  0  0
  7  8  1  0  0  0  0
  9  7  1  0  0  0  0
 10  9  1  0  0  0  0
  4 10  1  0  0  0  0
 10 11  1  0  0  0  0
 11 12  1  0  0  0  0
 12 13  2  0  0  0  0
 12 14  1  0  0  0  0
 14 15  2  0  0  0  0
 14 16  1  0  0  0  0
 16 17  1  0  0  0  0
 17 18  1  0  0  0  0
M  END
> <RowID>
1004

> <Original_SMILES>
CC(C)C1CCC(C)CC1OC(=O)C(=O)NCC

> <Canonical_QSARr>
CC(C)C1CCC(C)CC1OC(=O)C(=O)NCC

> <InChI_Code_QSARr>
InChI=1S/C14H25NO3/c1-5-15-13(16)14(17)18-12-8-10(4)6-7-11(12)9(2)3/h9-12H,5-8H2,1-4H3,(H,15,16)

> <InChI Key_QSARr>
VTSKTHILUKZQTB-UHFFFAOYSA-N

> <Salt_Solvent>


> <Salt_Solvent_ID>
0

> <Number of connected components>
1

$$$$
Molecule_1005
  Mrv2316 01072400032D          

 28 30  0  0  0  0            999 V2000
    3.5724  -11.1375    0.0000 C   0  0  0  0  0  0  0  0  0  0  0  0
    3.5724  -10.3125    0.0000 C   0  0  0  0  0  0  0  0  0  0  0  0
    4.2868   -9.9000    0.0000 C   0  0  0  0  0  0  0  0  0  0  0  0
    4.2868   -9.0750    0.0000 C   0  0  0  0  0  0  0  0  0  0  0  0
    3.5724   -8.6625    0.0000 C   0  0  0  0  0  0  0  0  0  0  0  0
    3.5724   -7.8375    0.0000 N   0  0  0  0  0  0  0  0  0  0  0  0
    4.2868   -7.4250    0.0000 C   0  0  0  0  0  0  0  0  0  0  0  0
    5.0013   -7.8375    0.0000 C   0  0  0  0  0  0  0  0  0  0  0  0
    5.7158   -7.4250    0.0000 C   0  0  0  0  0  0  0  0  0  0  0  0
    6.4302   -7.8375    0.0000 C   0  0  0  0  0  0  0  0  0  0  0  0
    7.1447   -7.4250    0.0000 O   0  0  0  0  0  0  0  0  0  0  0  0
    6.4302   -8.6625    0.0000 O   0  0  0  0  0  0  0  0  0  0  0  0
    5.7158   -6.6000    0.0000 C   0  0  0  0  0  0  0  0  0  0  0  0
    6.4302   -6.1875    0.0000 N   0  0  0  0  0  0  0  0  0  0  0  0
    6.4302   -5.3625    0.0000 C   0  0  0  0  0  0  0  0  0  0  0  0
    7.1447   -4.9500    0.0000 C   0  0  0  0  0  0  0  0  0  0  0  0
    7.1447   -4.1250    0.0000 C   0  0  0  0  0  0  0  0  0  0  0  0
    6.4302   -3.7125    0.0000 C   0  0  0  0  0  0  0  0  0  0  0  0
    6.4302   -2.8875    0.0000 C   0  0  0  0  0  0  0  0  0  0  0  0
    5.7158   -4.1250    0.0000 C   0  0  0  0  0  0  0  0  0  0  0  0
    5.7158   -4.9500    0.0000 C   0  0  0  0  0  0  0  0  0  0  0  0
    5.0013   -6.1875    0.0000 C   0  0  0  0  0  0  0  0  0  0  0  0
    4.2868   -6.6000    0.0000 C   0  0  0  0  0  0  0  0  0  0  0  0
    3.5724   -6.1875    0.0000 C   0  0  0  0  0  0  0  0  0  0  0  0
    2.8579   -6.6000    0.0000 O   0  0  0  0  0  0  0  0  0  0  0  0
    3.5724   -5.3625    0.0000 O   0  0  0  0  0  0  0  0  0  0  0  0
    2.8579   -9.0750    0.0000 C   0  0  0  0  0  0  0  0  0  0  0  0
    2.8579   -9.9000    0.0000 C   0  0  0  0  0  0  0  0  0  0  0  0
  1  2  1  0  0  0  0
  3  2  1  0  0  0  0
  4  3  2  0  0  0  0
  5  4  1  0  0  0  0
  5  6  1  0  0  0  0
  6  7  1  0  0  0  0
  8  7  2  0  0  0  0
  9  8  1  0  0  0  0
  9 10  1  0  0  0  0
 10 11  1  0  0  0  0
 10 12  2  0  0  0  0
 13  9  2  0  0  0  0
 13 14  1  0  0  0  0
 14 15  1  0  0  0  0
 16 15  1  0  0  0  0
 17 16  2  0  0  0  0
 18 17  1  0  0  0  0
 18 19  1  0  0  0  0
 20 18  2  0  0  0  0
 21 20  1  0  0  0  0
 15 21  2  0  0  0  0
 22 13  1  0  0  0  0
 23 22  2  0  0  0  0
  7 23  1  0  0  0  0
 23 24  1  0  0  0  0
 24 25  1  0  0  0  0
 24 26  2  0  0  0  0
 27  5  2  0  0  0  0
 28 27  1  0  0  0  0
  2 28  2  0  0  0  0
M  END
> <RowID>
1005

> <Original_SMILES>
CC1C=CC(=CC=1)NC1=CC(=C(C=C1C(O)=O)NC1C=CC(C)=CC=1)C(O)=O

> <Canonical_QSARr>
CC1C=CC(=CC=1)NC1=CC(=C(C=C1C(O)=O)NC1C=CC(C)=CC=1)C(O)=O

> <InChI_Code_QSARr>
InChI=1S/C22H20N2O4/c1-13-3-7-15(8-4-13)23-19-11-18(22(27)28)20(12-17(19)21(25)26)24-16-9-5-14(2)6-10-16/h3-12,23-24H,1-2H3,(H,25,26)(H,27,28)

> <InChI Key_QSARr>
FVLUGNOOEZYDNV-UHFFFAOYSA-N

> <Salt_Solvent>


> <Salt_Solvent_ID>
0

> <Number of connected components>
1

$$$$
Molecule_1006
  Mrv2316 01072400032D          

 16 18  0  0  0  0            999 V2000
   -0.1712   -0.6979    0.0000 O   0  0  0  0  0  0  0  0  0  0  0  0
    0.6538   -0.6979    0.0000 C   0  0  0  0  0  0  0  0  0  0  0  0
    1.1387   -0.0305    0.0000 C   0  0  0  0  0  0  0  0  0  0  0  0
    1.9233   -0.2854    0.0000 C   0  0  0  0  0  0  0  0  0  0  0  0
    2.6378    0.1271    0.0000 C   0  0  0  0  0  0  0  0  0  0  0  0
    3.3523   -0.2854    0.0000 C   0  0  0  0  0  0  0  0  0  0  0  0
    3.3523   -1.1104    0.0000 C   0  0  0  0  0  0  0  0  0  0  0  0
    2.6378   -1.5229    0.0000 C   0  0  0  0  0  0  0  0  0  0  0  0
    1.9233   -1.1104    0.0000 C   0  0  0  0  0  0  0  0  0  0  0  0
    1.1387   -1.3654    0.0000 N   0  0  0  0  0  0  0  0  0  0  0  0
    0.8838   -2.1500    0.0000 C   0  0  0  0  0  0  0  0  0  0  0  0
    0.0768   -2.3215    0.0000 C   0  0  0  0  0  0  0  0  0  0  0  0
   -0.1781   -3.1061    0.0000 C   0  0  0  0  0  0  0  0  0  0  0  0
    0.3739   -3.7192    0.0000 C   0  0  0  0  0  0  0  0  0  0  0  0
    1.1809   -3.5477    0.0000 C   0  0  0  0  0  0  0  0  0  0  0  0
    1.4358   -2.7631    0.0000 C   0  0  0  0  0  0  0  0  0  0  0  0
  1  2  2  0  0  0  0
  3  2  1  0  0  0  0
  4  3  1  0  0  0  0
  4  5  2  0  0  0  0
  5  6  1  0  0  0  0
  6  7  2  0  0  0  0
  7  8  1  0  0  0  0
  8  9  2  0  0  0  0
  9  4  1  0  0  0  0
 10  9  1  0  0  0  0
  2 10  1  0  0  0  0
 10 11  1  0  0  0  0
 12 11  1  0  0  0  0
 13 12  2  0  0  0  0
 14 13  1  0  0  0  0
 15 14  2  0  0  0  0
 16 15  1  0  0  0  0
 11 16  2  0  0  0  0
M  END
> <RowID>
1006

> <Original_SMILES>
O=C1CC2=CC=CC=C2N1C1C=CC=CC=1

> <Canonical_QSARr>
O=C1CC2=CC=CC=C2N1C1C=CC=CC=1

> <InChI_Code_QSARr>
InChI=1S/C14H11NO/c16-14-10-11-6-4-5-9-13(11)15(14)12-7-2-1-3-8-12/h1-9H,10H2

> <InChI Key_QSARr>
OWPNVXATCSXTBK-UHFFFAOYSA-N

> <Salt_Solvent>


> <Salt_Solvent_ID>
0

> <Number of connected components>
1

$$$$
Molecule_1007
  Mrv2316 01072400032D          

 19 19  0  0  0  0            999 V2000
    1.9930    5.3625    0.0000 C   0  0  0  0  0  0  0  0  0  0  0  0
    1.2785    4.9500    0.0000 C   0  0  0  0  0  0  0  0  0  0  0  0
    0.5641    4.5375    0.0000 C   0  0  0  0  0  0  0  0  0  0  0  0
   -0.1504    4.9500    0.0000 C   0  0  0  0  0  0  0  0  0  0  0  0
   -0.8649    4.5375    0.0000 O   0  0  0  0  0  0  0  0  0  0  0  0
   -0.1504    5.7750    0.0000 O   0  0  0  0  0  0  0  0  0  0  0  0
    0.5641    3.7125    0.0000 N   0  0  0  0  0  0  0  0  0  0  0  0
   -0.1504    3.3000    0.0000 C   0  0  0  0  0  0  0  0  0  0  0  0
   -0.1504    2.4750    0.0000 O   0  0  0  0  0  0  0  0  0  0  0  0
   -0.8649    2.0625    0.0000 C   0  0  0  0  0  0  0  0  0  0  0  0
   -0.8649    1.2375    0.0000 C   0  0  0  0  0  0  0  0  0  0  0  0
   -1.5793    0.8250    0.0000 C   0  0  0  0  0  0  0  0  0  0  0  0
   -1.5793    0.0000    0.0000 C   0  0  0  0  0  0  0  0  0  0  0  0
   -0.8649   -0.4125    0.0000 C   0  0  0  0  0  0  0  0  0  0  0  0
   -0.1504    0.0000    0.0000 C   0  0  0  0  0  0  0  0  0  0  0  0
   -0.1504    0.8250    0.0000 C   0  0  0  0  0  0  0  0  0  0  0  0
   -0.8649    3.7125    0.0000 O   0  0  0  0  0  0  0  0  0  0  0  0
    0.8660    5.6645    0.0000 C   0  0  0  0  0  0  0  0  0  0  0  0
    1.6910    4.2355    0.0000 C   0  0  0  0  0  0  0  0  0  0  0  0
  1  2  1  0  0  0  0
  2  3  1  0  0  0  0
  3  4  1  0  0  0  0
  4  5  2  0  0  0  0
  4  6  1  0  0  0  0
  3  7  1  0  0  0  0
  7  8  1  0  0  0  0
  8  9  1  0  0  0  0
  9 10  1  0  0  0  0
 10 11  1  0  0  0  0
 12 11  2  0  0  0  0
 13 12  1  0  0  0  0
 14 13  2  0  0  0  0
 15 14  1  0  0  0  0
 16 15  2  0  0  0  0
 11 16  1  0  0  0  0
  8 17  2  0  0  0  0
  2 18  1  0  0  0  0
  2 19  1  0  0  0  0
M  END
> <RowID>
1007

> <Original_SMILES>
CC(C)(C)C(NC(=O)OCC1C=CC=CC=1)C(O)=O.C1CCCC(C1)NC1CCCCC1

> <Canonical_QSARr>
CC(C)(C)C(NC(=O)OCC1C=CC=CC=1)C(O)=O

> <InChI_Code_QSARr>
InChI=1S/C14H19NO4/c1-14(2,3)11(12(16)17)15-13(18)19-9-10-7-5-4-6-8-10/h4-8,11H,9H2,1-3H3,(H,15,18)(H,16,17)

> <InChI Key_QSARr>
NSVNKQLSGGKNKB-UHFFFAOYSA-N

> <Salt_Solvent>
C1CC(NC2CCCCC2)CCC1

> <Salt_Solvent_ID>
4018

> <Number of connected components>
2

$$$$
Molecule_1008
  Mrv2316 01072400032D          

  9  8  0  0  0  0            999 V2000
   -0.6039   -2.4750    0.0000 C   0  0  0  0  0  0  0  0  0  0  0  0
    0.1105   -2.0625    0.0000 C   0  0  0  0  0  0  0  0  0  0  0  0
    0.1105   -1.2375    0.0000 O   0  0  0  0  0  0  0  0  0  0  0  0
    0.8250   -0.8250    0.0000 C   0  0  0  0  0  0  0  0  0  0  0  0
    1.5395   -1.2375    0.0000 O   0  0  0  0  0  0  0  0  0  0  0  0
    0.8250   -0.0000    0.0000 C   0  0  0  0  0  0  0  0  0  0  0  0
    0.8250    0.8250    0.0000 Cl  0  0  0  0  0  0  0  0  0  0  0  0
    1.6500   -0.0000    0.0000 Cl  0  0  0  0  0  0  0  0  0  0  0  0
    0.0000   -0.0000    0.0000 Cl  0  0  0  0  0  0  0  0  0  0  0  0
  1  2  1  0  0  0  0
  2  3  1  0  0  0  0
  3  4  1  0  0  0  0
  4  5  2  0  0  0  0
  4  6  1  0  0  0  0
  6  7  1  0  0  0  0
  6  8  1  0  0  0  0
  6  9  1  0  0  0  0
M  END
> <RowID>
1008

> <Original_SMILES>
CCOC(=O)C(Cl)(Cl)Cl

> <Canonical_QSARr>
CCOC(=O)C(Cl)(Cl)Cl

> <InChI_Code_QSARr>
InChI=1S/C4H5Cl3O2/c1-2-9-3(8)4(5,6)7/h2H2,1H3

> <InChI Key_QSARr>
SJMLNDPIJZBEKY-UHFFFAOYSA-N

> <Salt_Solvent>


> <Salt_Solvent_ID>
0

> <Number of connected components>
1

$$$$
Molecule_1009
  Mrv2316 01072400032D          

 14 13  0  0  0  0            999 V2000
   -1.2079    0.0000    0.0000 C   0  0  0  0  0  0  0  0  0  0  0  0
   -1.6204    0.7145    0.0000 C   0  0  0  0  0  0  0  0  0  0  0  0
   -2.0329    1.4290    0.0000 C   0  0  0  0  0  0  0  0  0  0  0  0
   -2.3349    0.3020    0.0000 C   0  0  0  0  0  0  0  0  0  0  0  0
   -3.0493    0.7145    0.0000 O   0  0  0  0  0  0  0  0  0  0  0  0
   -0.9059    1.1270    0.0000 C   0  0  0  0  0  0  0  0  0  0  0  0
   -0.9059    1.9520    0.0000 O   0  0  0  0  0  0  0  0  0  0  0  0
   -0.1914    0.7145    0.0000 C   0  0  0  0  0  0  0  0  0  0  0  0
   -0.1914   -0.1105    0.0000 O   0  0  0  0  0  0  0  0  0  0  0  0
    0.5230    1.1270    0.0000 N   0  0  0  0  0  0  0  0  0  0  0  0
    1.2375    0.7145    0.0000 C   0  0  0  0  0  0  0  0  0  0  0  0
    1.9520    1.1270    0.0000 C   0  0  0  0  0  0  0  0  0  0  0  0
    2.6664    0.7145    0.0000 C   0  0  0  0  0  0  0  0  0  0  0  0
    3.3809    1.1270    0.0000 O   0  0  0  0  0  0  0  0  0  0  0  0
  1  2  1  0  0  0  0
  2  3  1  0  0  0  0
  2  4  1  0  0  0  0
  4  5  1  0  0  0  0
  2  6  1  0  0  0  0
  6  7  1  0  0  0  0
  6  8  1  0  0  0  0
  8  9  2  0  0  0  0
  8 10  1  0  0  0  0
 10 11  1  0  0  0  0
 11 12  1  0  0  0  0
 12 13  1  0  0  0  0
 13 14  1  0  0  0  0
M  END
> <RowID>
1009

> <Original_SMILES>
CC(C)(CO)C(O)C(=O)NCCCO

> <Canonical_QSARr>
CC(C)(CO)C(O)C(=O)NCCCO

> <InChI_Code_QSARr>
InChI=1S/C9H19NO4/c1-9(2,6-12)7(13)8(14)10-4-3-5-11/h7,11-13H,3-6H2,1-2H3,(H,10,14)

> <InChI Key_QSARr>
SNPLKNRPJHDVJA-UHFFFAOYSA-N

> <Salt_Solvent>


> <Salt_Solvent_ID>
0

> <Number of connected components>
1

$$$$
Molecule_1010
  Mrv2316 01072400032D          

 11 12  0  0  0  0            999 V2000
    2.7845    2.1979    0.0000 N   0  0  0  0  0  0  0  0  0  0  0  0
    2.0701    1.7854    0.0000 C   0  0  0  0  0  0  0  0  0  0  0  0
    1.3556    2.1979    0.0000 C   0  0  0  0  0  0  0  0  0  0  0  0
    0.6411    1.7854    0.0000 C   0  0  0  0  0  0  0  0  0  0  0  0
   -0.1435    2.0403    0.0000 N   0  0  0  0  0  0  0  0  0  0  0  0
   -0.6284    1.3729    0.0000 C   0  0  0  0  0  0  0  0  0  0  0  0
   -1.4534    1.3729    0.0000 O   0  0  0  0  0  0  0  0  0  0  0  0
   -0.1435    0.7055    0.0000 N   0  0  0  0  0  0  0  0  0  0  0  0
    0.6411    0.9604    0.0000 C   0  0  0  0  0  0  0  0  0  0  0  0
    1.3556    0.5479    0.0000 C   0  0  0  0  0  0  0  0  0  0  0  0
    2.0701    0.9604    0.0000 C   0  0  0  0  0  0  0  0  0  0  0  0
  1  2  1  0  0  0  0
  3  2  1  0  0  0  0
  4  3  2  0  0  0  0
  4  5  1  0  0  0  0
  5  6  1  0  0  0  0
  6  7  2  0  0  0  0
  6  8  1  0  0  0  0
  8  9  1  0  0  0  0
  9  4  1  0  0  0  0
 10  9  2  0  0  0  0
 11 10  1  0  0  0  0
  2 11  2  0  0  0  0
M  END
> <RowID>
1010

> <Original_SMILES>
NC1C=C2NC(=O)NC2=CC=1

> <Canonical_QSARr>
NC1C=C2NC(=O)NC2=CC=1

> <InChI_Code_QSARr>
InChI=1S/C7H7N3O/c8-4-1-2-5-6(3-4)10-7(11)9-5/h1-3H,8H2,(H2,9,10,11)

> <InChI Key_QSARr>
BCXSVFBDMPSKPT-UHFFFAOYSA-N

> <Salt_Solvent>


> <Salt_Solvent_ID>
0

> <Number of connected components>
1

$$$$
Molecule_1012
  Mrv2316 01072400032D          

 46 51  0  0  0  0            999 V2000
   -4.0711   -8.2396    0.0000 C   0  0  0  0  0  0  0  0  0  0  0  0
   -4.5560   -7.5721    0.0000 C   0  0  0  0  0  0  0  0  0  0  0  0
   -4.3010   -6.7875    0.0000 N   0  0  0  0  0  0  0  0  0  0  0  0
   -4.9685   -6.3026    0.0000 N   0  0  0  0  0  0  0  0  0  0  0  0
   -4.9685   -5.4776    0.0000 C   0  0  0  0  0  0  0  0  0  0  0  0
   -4.2540   -5.0651    0.0000 C   0  0  0  0  0  0  0  0  0  0  0  0
   -4.2540   -4.2401    0.0000 C   0  0  0  0  0  0  0  0  0  0  0  0
   -4.9685   -3.8276    0.0000 C   0  0  0  0  0  0  0  0  0  0  0  0
   -4.9685   -3.0026    0.0000 C   0  0  0  0  0  0  0  0  0  0  0  0
   -5.6829   -4.2401    0.0000 C   0  0  0  0  0  0  0  0  0  0  0  0
   -5.6829   -5.0651    0.0000 C   0  0  0  0  0  0  0  0  0  0  0  0
   -5.6359   -6.7875    0.0000 C   0  0  0  0  0  0  0  0  0  0  0  0
   -6.4205   -6.5326    0.0000 O   0  0  0  0  0  0  0  0  0  0  0  0
   -5.3810   -7.5721    0.0000 C   0  0  0  0  0  0  0  0  0  0  0  0
   -5.8659   -8.2396    0.0000 N   0  0  0  0  0  0  0  0  0  0  0  0
   -6.6864   -8.1533    0.0000 N   0  0  0  0  0  0  0  0  0  0  0  0
   -7.1713   -8.8208    0.0000 C   0  0  0  0  0  0  0  0  0  0  0  0
   -7.9918   -8.7345    0.0000 C   0  0  0  0  0  0  0  0  0  0  0  0
   -8.4767   -9.4020    0.0000 C   0  0  0  0  0  0  0  0  0  0  0  0
   -8.1411  -10.1556    0.0000 C   0  0  0  0  0  0  0  0  0  0  0  0
   -8.6261  -10.8231    0.0000 C   0  0  0  0  0  0  0  0  0  0  0  0
   -9.4466  -10.7368    0.0000 C   0  0  0  0  0  0  0  0  0  0  0  0
   -9.9315  -11.4043    0.0000 C   0  0  0  0  0  0  0  0  0  0  0  0
  -10.7520  -11.3180    0.0000 Cl  0  0  0  0  0  0  0  0  0  0  0  0
   -9.5959  -12.1580    0.0000 C   0  0  0  0  0  0  0  0  0  0  0  0
  -10.0808  -12.8254    0.0000 N   0  0  0  0  0  0  0  0  0  0  0  0
  -10.9013  -12.7392    0.0000 N   0  0  0  0  0  0  0  0  0  0  0  0
  -11.3862  -13.4066    0.0000 C   0  0  0  0  0  0  0  0  0  0  0  0
  -12.2112  -13.4066    0.0000 C   0  0  0  0  0  0  0  0  0  0  0  0
  -12.6962  -12.7392    0.0000 O   0  0  0  0  0  0  0  0  0  0  0  0
  -12.4662  -14.1912    0.0000 N   0  0  0  0  0  0  0  0  0  0  0  0
  -13.2508  -14.4462    0.0000 C   0  0  0  0  0  0  0  0  0  0  0  0
  -13.8639  -13.8941    0.0000 C   0  0  0  0  0  0  0  0  0  0  0  0
  -14.6485  -14.1491    0.0000 C   0  0  0  0  0  0  0  0  0  0  0  0
  -14.8200  -14.9560    0.0000 C   0  0  0  0  0  0  0  0  0  0  0  0
  -15.6047  -15.2110    0.0000 C   0  0  0  0  0  0  0  0  0  0  0  0
  -14.2070  -15.5081    0.0000 C   0  0  0  0  0  0  0  0  0  0  0  0
  -13.4223  -15.2531    0.0000 C   0  0  0  0  0  0  0  0  0  0  0  0
  -11.7987  -14.6761    0.0000 N   0  0  0  0  0  0  0  0  0  0  0  0
  -11.1313  -14.1912    0.0000 C   0  0  0  0  0  0  0  0  0  0  0  0
  -10.3467  -14.4462    0.0000 C   0  0  0  0  0  0  0  0  0  0  0  0
   -8.7754  -12.2442    0.0000 C   0  0  0  0  0  0  0  0  0  0  0  0
   -8.2905  -11.5767    0.0000 C   0  0  0  0  0  0  0  0  0  0  0  0
   -7.3207  -10.2419    0.0000 C   0  0  0  0  0  0  0  0  0  0  0  0
   -6.8357   -9.5744    0.0000 C   0  0  0  0  0  0  0  0  0  0  0  0
   -6.0153   -9.6607    0.0000 Cl  0  0  0  0  0  0  0  0  0  0  0  0
  1  2  1  0  0  0  0
  3  2  2  0  0  0  0
  4  3  1  0  0  0  0
  4  5  1  0  0  0  0
  6  5  1  0  0  0  0
  7  6  2  0  0  0  0
  8  7  1  0  0  0  0
  8  9  1  0  0  0  0
 10  8  2  0  0  0  0
 11 10  1  0  0  0  0
  5 11  2  0  0  0  0
 12  4  1  0  0  0  0
 12 13  2  0  0  0  0
 14 12  1  0  0  0  0
  2 14  1  0  0  0  0
 15 14  1  4  0  0  0
 15 16  2  0  0  0  0
 16 17  1  0  0  0  0
 18 17  2  0  0  0  0
 19 18  1  0  0  0  0
 20 19  2  0  0  0  0
 20 21  1  0  0  0  0
 22 21  2  0  0  0  0
 23 22  1  0  0  0  0
 23 24  1  0  0  0  0
 25 23  2  0  0  0  0
 26 25  1  4  0  0  0
 26 27  2  0  0  0  0
 27 28  1  0  0  0  0
 29 28  1  0  0  0  0
 29 30  2  0  0  0  0
 31 29  1  0  0  0  0
 31 32  1  0  0  0  0
 33 32  1  0  0  0  0
 34 33  2  0  0  0  0
 35 34  1  0  0  0  0
 35 36  1  0  0  0  0
 37 35  2  0  0  0  0
 38 37  1  0  0  0  0
 32 38  2  0  0  0  0
 39 31  1  0  0  0  0
 40 39  2  0  0  0  0
 28 40  1  0  0  0  0
 40 41  1  0  0  0  0
 42 25  1  0  0  0  0
 43 42  2  0  0  0  0
 21 43  1  0  0  0  0
 44 20  1  0  0  0  0
 45 44  2  0  0  0  0
 17 45  1  0  0  0  0
 45 46  1  0  0  0  0
M  END
> <RowID>
1012

> <Original_SMILES>
CC1=NN(C2C=CC(C)=CC=2)C(=O)C1N=NC1=CC=C(C=C1Cl)C1=CC(Cl)=C(C=C1)N=NC1C(=O)N(N=C1C)C1C=CC(C)=CC=1

> <Canonical_QSARr>
CC1=NN(C2C=CC(C)=CC=2)C(=O)C1N=NC1=CC=C(C=C1Cl)C1=CC(Cl)=C(C=C1)N=NC1C(=O)N(N=C1C)C1C=CC(C)=CC=1

> <InChI_Code_QSARr>
InChI=1S/C34H28Cl2N8O2/c1-19-5-11-25(12-6-19)43-33(45)31(21(3)41-43)39-37-29-15-9-23(17-27(29)35)24-10-16-30(28(36)18-24)38-40-32-22(4)42-44(34(32)46)26-13-7-20(2)8-14-26/h5-18,31-32H,1-4H3

> <InChI Key_QSARr>
UIBAAMBCJDNDSQ-UHFFFAOYSA-N

> <Salt_Solvent>


> <Salt_Solvent_ID>
0

> <Number of connected components>
1

$$$$
Molecule_1013
  Mrv2316 01072400032D          

 32 35  0  0  0  0            999 V2000
    4.9120    0.2320    0.0000 O   0  0  0  0  0  0  0  0  0  0  0  0
    4.1975   -0.1805    0.0000 C   0  0  0  0  0  0  0  0  0  0  0  0
    3.4831    0.2320    0.0000 N   0  0  0  0  0  0  0  0  0  0  0  0
    2.7686   -0.1805    0.0000 C   0  0  0  0  0  0  0  0  0  0  0  0
    2.7686   -1.0055    0.0000 C   0  0  0  0  0  0  0  0  0  0  0  0
    2.0541   -1.4180    0.0000 C   0  0  0  0  0  0  0  0  0  0  0  0
    1.3396   -1.0055    0.0000 C   0  0  0  0  0  0  0  0  0  0  0  0
    1.3396   -0.1805    0.0000 C   0  0  0  0  0  0  0  0  0  0  0  0
    2.0541    0.2320    0.0000 C   0  0  0  0  0  0  0  0  0  0  0  0
    2.0541    1.0570    0.0000 S   0  0  0  0  0  0  0  0  0  0  0  0
    2.7686    1.4695    0.0000 S   0  0  0  0  0  0  0  0  0  0  0  0
    2.7686    2.2945    0.0000 C   0  0  0  0  0  0  0  0  0  0  0  0
    3.4831    2.7070    0.0000 C   0  0  0  0  0  0  0  0  0  0  0  0
    3.4831    3.5320    0.0000 C   0  0  0  0  0  0  0  0  0  0  0  0
    2.7686    3.9445    0.0000 C   0  0  0  0  0  0  0  0  0  0  0  0
    2.0541    3.5320    0.0000 C   0  0  0  0  0  0  0  0  0  0  0  0
    2.0541    2.7070    0.0000 C   0  0  0  0  0  0  0  0  0  0  0  0
    1.3396    2.2945    0.0000 N   0  0  0  0  0  0  0  0  0  0  0  0
    0.6252    2.7070    0.0000 C   0  0  0  0  0  0  0  0  0  0  0  0
    0.6252    3.5320    0.0000 O   0  0  0  0  0  0  0  0  0  0  0  0
   -0.0893    2.2945    0.0000 C   0  0  0  0  0  0  0  0  0  0  0  0
   -0.8038    2.7070    0.0000 C   0  0  0  0  0  0  0  0  0  0  0  0
   -1.5182    2.2945    0.0000 C   0  0  0  0  0  0  0  0  0  0  0  0
   -1.5182    1.4695    0.0000 C   0  0  0  0  0  0  0  0  0  0  0  0
   -0.8038    1.0570    0.0000 C   0  0  0  0  0  0  0  0  0  0  0  0
   -0.0893    1.4695    0.0000 C   0  0  0  0  0  0  0  0  0  0  0  0
    4.1975   -1.0055    0.0000 C   0  0  0  0  0  0  0  0  0  0  0  0
    3.4831   -1.4180    0.0000 C   0  0  0  0  0  0  0  0  0  0  0  0
    3.4831   -2.2430    0.0000 C   0  0  0  0  0  0  0  0  0  0  0  0
    4.1975   -2.6555    0.0000 C   0  0  0  0  0  0  0  0  0  0  0  0
    4.9120   -2.2430    0.0000 C   0  0  0  0  0  0  0  0  0  0  0  0
    4.9120   -1.4180    0.0000 C   0  0  0  0  0  0  0  0  0  0  0  0
  1  2  2  0  0  0  0
  2  3  1  0  0  0  0
  3  4  1  0  0  0  0
  5  4  1  0  0  0  0
  6  5  2  0  0  0  0
  7  6  1  0  0  0  0
  8  7  2  0  0  0  0
  9  8  1  0  0  0  0
  4  9  2  0  0  0  0
  9 10  1  0  0  0  0
 10 11  1  0  0  0  0
 11 12  1  0  0  0  0
 13 12  2  0  0  0  0
 14 13  1  0  0  0  0
 15 14  2  0  0  0  0
 16 15  1  0  0  0  0
 17 16  2  0  0  0  0
 12 17  1  0  0  0  0
 17 18  1  0  0  0  0
 18 19  1  0  0  0  0
 19 20  2  0  0  0  0
 19 21  1  0  0  0  0
 22 21  1  0  0  0  0
 23 22  2  0  0  0  0
 24 23  1  0  0  0  0
 25 24  2  0  0  0  0
 26 25  1  0  0  0  0
 21 26  2  0  0  0  0
  2 27  1  0  0  0  0
 28 27  1  0  0  0  0
 29 28  2  0  0  0  0
 30 29  1  0  0  0  0
 31 30  2  0  0  0  0
 32 31  1  0  0  0  0
 27 32  2  0  0  0  0
M  END
> <RowID>
1013

> <Original_SMILES>
O=C(NC1C=CC=CC=1SSC1=CC=CC=C1NC(=O)C1C=CC=CC=1)C1C=CC=CC=1

> <Canonical_QSARr>
O=C(NC1C=CC=CC=1SSC1=CC=CC=C1NC(=O)C1C=CC=CC=1)C1C=CC=CC=1

> <InChI_Code_QSARr>
InChI=1S/C26H20N2O2S2/c29-25(19-11-3-1-4-12-19)27-21-15-7-9-17-23(21)31-32-24-18-10-8-16-22(24)28-26(30)20-13-5-2-6-14-20/h1-18H,(H,27,29)(H,28,30)

> <InChI Key_QSARr>
ZHMIOPLMFZVSHY-UHFFFAOYSA-N

> <Salt_Solvent>


> <Salt_Solvent_ID>
0

> <Number of connected components>
1

$$$$
Molecule_1014
  Mrv2316 01072400032D          

 16 15  0  0  0  0            999 V2000
    2.2539    3.0789    0.0000 C   0  0  0  0  0  0  0  0  0  0  0  0
    1.5395    2.6664    0.0000 C   0  0  0  0  0  0  0  0  0  0  0  0
    1.5395    1.8414    0.0000 O   0  0  0  0  0  0  0  0  0  0  0  0
    0.8250    1.4289    0.0000 Si  0  0  0  0  0  0  0  0  0  0  0  0
    0.1105    1.0164    0.0000 C   0  0  0  0  0  0  0  0  0  0  0  0
   -0.6039    1.4289    0.0000 C   0  0  0  0  0  0  0  0  0  0  0  0
   -1.3184    1.0164    0.0000 C   0  0  0  0  0  0  0  0  0  0  0  0
   -1.3184    0.1914    0.0000 N   0  0  0  0  0  0  0  0  0  0  0  0
   -2.0329   -0.2211    0.0000 C   0  0  0  0  0  0  0  0  0  0  0  0
   -2.0329   -1.0461    0.0000 O   0  0  0  0  0  0  0  0  0  0  0  0
    0.4125    2.1434    0.0000 O   0  0  0  0  0  0  0  0  0  0  0  0
   -0.4125    2.1434    0.0000 C   0  0  0  0  0  0  0  0  0  0  0  0
   -0.8250    2.8579    0.0000 C   0  0  0  0  0  0  0  0  0  0  0  0
    1.2375    0.7144    0.0000 O   0  0  0  0  0  0  0  0  0  0  0  0
    0.8250   -0.0000    0.0000 C   0  0  0  0  0  0  0  0  0  0  0  0
    0.0000   -0.0000    0.0000 C   0  0  0  0  0  0  0  0  0  0  0  0
  1  2  1  0  0  0  0
  2  3  1  0  0  0  0
  3  4  1  0  0  0  0
  4  5  1  0  0  0  0
  5  6  1  0  0  0  0
  6  7  1  0  0  0  0
  7  8  1  0  0  0  0
  8  9  1  0  0  0  0
  9 10  2  0  0  0  0
  4 11  1  0  0  0  0
 11 12  1  0  0  0  0
 12 13  1  0  0  0  0
  4 14  1  0  0  0  0
 14 15  1  0  0  0  0
 15 16  1  0  0  0  0
M  END
> <RowID>
1014

> <Original_SMILES>
CCO[Si](CCCNC=O)(OCC)OCC

> <Canonical_QSARr>
CCO[Si](CCCNC=O)(OCC)OCC

> <InChI_Code_QSARr>
InChI=1S/C10H23NO4Si/c1-4-13-16(14-5-2,15-6-3)9-7-8-11-10-12/h10H,4-9H2,1-3H3,(H,11,12)

> <InChI Key_QSARr>
ZGJZKIWPDBYTJA-UHFFFAOYSA-N

> <Salt_Solvent>


> <Salt_Solvent_ID>
0

> <Number of connected components>
1

$$$$
Molecule_1015
  Mrv2316 01072400032D          

  8  7  0  0  0  0            999 V2000
    1.7605   -1.8414    0.0000 C   0  0  0  0  0  0  0  0  0  0  0  0
    2.4750   -1.4289    0.0000 C   0  0  0  0  0  0  0  0  0  0  0  0
    3.1895   -1.8414    0.0000 O   0  0  0  0  0  0  0  0  0  0  0  0
    3.9039   -1.4289    0.0000 C   0  0  0  0  0  0  0  0  0  0  0  0
    3.9039   -0.6039    0.0000 O   0  0  0  0  0  0  0  0  0  0  0  0
    4.6184   -1.8414    0.0000 C   0  0  0  0  0  0  0  0  0  0  0  0
    5.3329   -1.4289    0.0000 C   0  0  0  0  0  0  0  0  0  0  0  0
    6.0474   -1.0164    0.0000 N   0  0  0  0  0  0  0  0  0  0  0  0
  1  2  1  0  0  0  0
  2  3  1  0  0  0  0
  3  4  1  0  0  0  0
  4  5  2  0  0  0  0
  4  6  1  0  0  0  0
  6  7  1  0  0  0  0
  7  8  3  0  0  0  0
M  END
> <RowID>
1015

> <Original_SMILES>
CCOC(=O)CC#N

> <Canonical_QSARr>
CCOC(=O)CC#N

> <InChI_Code_QSARr>
InChI=1S/C5H7NO2/c1-2-8-5(7)3-4-6/h2-3H2,1H3

> <InChI Key_QSARr>
ZIUSEGSNTOUIPT-UHFFFAOYSA-N

> <Salt_Solvent>


> <Salt_Solvent_ID>
0

> <Number of connected components>
1

$$$$
Molecule_1016
  Mrv2316 01072400032D          

 62 63  0  0  0  0            999 V2000
   -0.4609    2.2887    0.0000 C   0  0  0  0  0  0  0  0  0  0  0  0
    0.2535    1.8762    0.0000 C   0  0  0  0  0  0  0  0  0  0  0  0
    0.9680    2.2887    0.0000 O   0  0  0  0  0  0  0  0  0  0  0  0
    0.2535    1.0512    0.0000 N   0  0  0  0  0  0  0  0  0  0  0  0
    0.9680    0.6387    0.0000 C   0  0  0  0  0  0  0  0  0  0  0  0
    1.6825    1.0512    0.0000 C   0  0  0  0  0  0  0  0  0  0  0  0
    1.6825    1.8762    0.0000 O   0  0  0  0  0  0  0  0  0  0  0  0
    2.3969    0.6387    0.0000 C   0  0  0  0  0  0  0  0  0  0  0  0
    3.1114    1.0512    0.0000 N   0  0  0  0  0  0  0  0  0  0  0  0
    3.8259    0.6387    0.0000 C   0  0  0  0  0  0  0  0  0  0  0  0
    3.8259   -0.1863    0.0000 C   0  0  0  0  0  0  0  0  0  0  0  0
    3.1114   -0.5988    0.0000 I   0  0  0  0  0  0  0  0  0  0  0  0
    4.5404   -0.5988    0.0000 C   0  0  0  0  0  0  0  0  0  0  0  0
    4.5404   -1.4238    0.0000 C   0  0  0  0  0  0  0  0  0  0  0  0
    3.8259   -1.8363    0.0000 O   0  0  0  0  0  0  0  0  0  0  0  0
    5.2548   -1.8363    0.0000 N   0  0  0  0  0  0  0  0  0  0  0  0
    5.2548   -2.6613    0.0000 C   0  0  0  0  0  0  0  0  0  0  0  0
    5.9693   -3.0738    0.0000 C   0  0  0  0  0  0  0  0  0  0  0  0
    6.6838   -2.6613    0.0000 O   0  0  0  0  0  0  0  0  0  0  0  0
    5.9693   -3.8988    0.0000 C   0  0  0  0  0  0  0  0  0  0  0  0
    6.6838   -4.3113    0.0000 O   0  0  0  0  0  0  0  0  0  0  0  0
    5.2548   -0.1863    0.0000 C   0  0  0  0  0  0  0  0  0  0  0  0
    5.9693   -0.5988    0.0000 I   0  0  0  0  0  0  0  0  0  0  0  0
    5.2548    0.6387    0.0000 C   0  0  0  0  0  0  0  0  0  0  0  0
    5.9693    1.0512    0.0000 C   0  0  0  0  0  0  0  0  0  0  0  0
    5.9693    1.8762    0.0000 O   0  0  0  0  0  0  0  0  0  0  0  0
    6.6838    0.6387    0.0000 N   0  0  0  0  0  0  0  0  0  0  0  0
    7.3982    1.0512    0.0000 C   0  0  0  0  0  0  0  0  0  0  0  0
    8.1127    0.6387    0.0000 C   0  0  0  0  0  0  0  0  0  0  0  0
    8.1127   -0.1863    0.0000 O   0  0  0  0  0  0  0  0  0  0  0  0
    8.8272    1.0512    0.0000 C   0  0  0  0  0  0  0  0  0  0  0  0
    9.5417    0.6387    0.0000 O   0  0  0  0  0  0  0  0  0  0  0  0
    4.5404    1.0512    0.0000 C   0  0  0  0  0  0  0  0  0  0  0  0
    4.5404    1.8762    0.0000 I   0  0  0  0  0  0  0  0  0  0  0  0
    3.1114    1.8762    0.0000 C   0  0  0  0  0  0  0  0  0  0  0  0
    2.3969    2.2887    0.0000 C   0  0  0  0  0  0  0  0  0  0  0  0
    3.8259    2.2887    0.0000 O   0  0  0  0  0  0  0  0  0  0  0  0
   -0.4609    0.6387    0.0000 C   0  0  0  0  0  0  0  0  0  0  0  0
   -1.1754    1.0512    0.0000 C   0  0  0  0  0  0  0  0  0  0  0  0
   -1.1754    1.8762    0.0000 I   0  0  0  0  0  0  0  0  0  0  0  0
   -1.8899    0.6387    0.0000 C   0  0  0  0  0  0  0  0  0  0  0  0
   -2.6044    1.0512    0.0000 C   0  0  0  0  0  0  0  0  0  0  0  0
   -2.6044    1.8762    0.0000 O   0  0  0  0  0  0  0  0  0  0  0  0
   -3.3188    0.6387    0.0000 N   0  0  0  0  0  0  0  0  0  0  0  0
   -4.0333    1.0512    0.0000 C   0  0  0  0  0  0  0  0  0  0  0  0
   -4.7478    0.6387    0.0000 C   0  0  0  0  0  0  0  0  0  0  0  0
   -4.7478   -0.1863    0.0000 O   0  0  0  0  0  0  0  0  0  0  0  0
   -5.4622    1.0512    0.0000 C   0  0  0  0  0  0  0  0  0  0  0  0
   -6.1767    0.6387    0.0000 O   0  0  0  0  0  0  0  0  0  0  0  0
   -1.8899   -0.1863    0.0000 C   0  0  0  0  0  0  0  0  0  0  0  0
   -2.6044   -0.5988    0.0000 I   0  0  0  0  0  0  0  0  0  0  0  0
   -1.1754   -0.5988    0.0000 C   0  0  0  0  0  0  0  0  0  0  0  0
   -1.1754   -1.4238    0.0000 C   0  0  0  0  0  0  0  0  0  0  0  0
   -0.4609   -1.8363    0.0000 O   0  0  0  0  0  0  0  0  0  0  0  0
   -1.8899   -1.8363    0.0000 N   0  0  0  0  0  0  0  0  0  0  0  0
   -1.8899   -2.6613    0.0000 C   0  0  0  0  0  0  0  0  0  0  0  0
   -2.6044   -3.0738    0.0000 C   0  0  0  0  0  0  0  0  0  0  0  0
   -3.3188   -2.6613    0.0000 O   0  0  0  0  0  0  0  0  0  0  0  0
   -2.6044   -3.8988    0.0000 C   0  0  0  0  0  0  0  0  0  0  0  0
   -3.3188   -4.3113    0.0000 O   0  0  0  0  0  0  0  0  0  0  0  0
   -0.4609   -0.1863    0.0000 C   0  0  0  0  0  0  0  0  0  0  0  0
    0.2535   -0.5988    0.0000 I   0  0  0  0  0  0  0  0  0  0  0  0
  1  2  1  0  0  0  0
  2  3  2  0  0  0  0
  2  4  1  0  0  0  0
  4  5  1  0  0  0  0
  5  6  1  0  0  0  0
  6  7  1  0  0  0  0
  6  8  1  0  0  0  0
  8  9  1  0  0  0  0
  9 10  1  0  0  0  0
 11 10  2  0  0  0  0
 11 12  1  0  0  0  0
 13 11  1  0  0  0  0
 13 14  1  0  0  0  0
 14 15  2  0  0  0  0
 14 16  1  0  0  0  0
 16 17  1  0  0  0  0
 17 18  1  0  0  0  0
 18 19  1  0  0  0  0
 18 20  1  0  0  0  0
 20 21  1  0  0  0  0
 22 13  2  0  0  0  0
 22 23  1  0  0  0  0
 24 22  1  0  0  0  0
 24 25  1  0  0  0  0
 25 26  2  0  0  0  0
 25 27  1  0  0  0  0
 27 28  1  0  0  0  0
 28 29  1  0  0  0  0
 29 30  1  0  0  0  0
 29 31  1  0  0  0  0
 31 32  1  0  0  0  0
 33 24  2  0  0  0  0
 10 33  1  0  0  0  0
 33 34  1  0  0  0  0
  9 35  1  0  0  0  0
 35 36  1  0  0  0  0
 35 37  2  0  0  0  0
  4 38  1  0  0  0  0
 39 38  2  0  0  0  0
 39 40  1  0  0  0  0
 41 39  1  0  0  0  0
 41 42  1  0  0  0  0
 42 43  2  0  0  0  0
 42 44  1  0  0  0  0
 44 45  1  0  0  0  0
 45 46  1  0  0  0  0
 46 47  1  0  0  0  0
 46 48  1  0  0  0  0
 48 49  1  0  0  0  0
 50 41  2  0  0  0  0
 50 51  1  0  0  0  0
 52 50  1  0  0  0  0
 52 53  1  0  0  0  0
 53 54  2  0  0  0  0
 53 55  1  0  0  0  0
 55 56  1  0  0  0  0
 56 57  1  0  0  0  0
 57 58  1  0  0  0  0
 57 59  1  0  0  0  0
 59 60  1  0  0  0  0
 61 52  2  0  0  0  0
 38 61  1  0  0  0  0
 61 62  1  0  0  0  0
M  END
> <RowID>
1016

> <Original_SMILES>
CC(=O)N(CC(O)CN(C1=C(I)C(=C(I)C(=C1I)C(=O)NCC(O)CO)C(=O)NCC(O)CO)C(C)=O)C1=C(I)C(=C(I)C(=C1I)C(=O)NCC(O)CO)C(=O)NCC(O)CO

> <Canonical_QSARr>
CC(=O)N(CC(O)CN(C1=C(I)C(=C(I)C(=C1I)C(=O)NCC(O)CO)C(=O)NCC(O)CO)C(C)=O)C1=C(I)C(=C(I)C(=C1I)C(=O)NCC(O)CO)C(=O)NCC(O)CO

> <InChI_Code_QSARr>
InChI=1S/C35H44I6N6O15/c1-13(52)46(30-26(38)20(32(59)42-3-15(54)9-48)24(36)21(27(30)39)33(60)43-4-16(55)10-49)7-19(58)8-47(14(2)53)31-28(40)22(34(61)44-5-17(56)11-50)25(37)23(29(31)41)35(62)45-6-18(57)12-51/h15-19,48-51,54-58H,3-12H2,1-2H3,(H,42,59)(H,43,60)(H,44,61)(H,45,62)

> <InChI Key_QSARr>
NBQNWMBBSKPBAY-UHFFFAOYSA-N

> <Salt_Solvent>


> <Salt_Solvent_ID>
0

> <Number of connected components>
1

$$$$
Molecule_1018
  Mrv2316 01072400032D          

 11 11  0  0  0  0            999 V2000
    0.7145   -2.1375    0.0000 C   0  0  0  0  0  0  0  0  0  0  0  0
    0.7145   -1.3125    0.0000 C   0  0  0  0  0  0  0  0  0  0  0  0
    1.4289   -0.9000    0.0000 C   0  0  0  0  0  0  0  0  0  0  0  0
    1.4289   -0.0750    0.0000 C   0  0  0  0  0  0  0  0  0  0  0  0
    0.7145    0.3375    0.0000 C   0  0  0  0  0  0  0  0  0  0  0  0
    0.7145    1.1625    0.0000 C   0  0  0  0  0  0  0  0  0  0  0  0
   -0.0000    1.5750    0.0000 N   0  0  0  0  0  0  0  0  0  0  0  0
    1.4289    1.5750    0.0000 O   0  0  0  0  0  0  0  0  0  0  0  0
   -0.0000   -0.0750    0.0000 C   0  0  0  0  0  0  0  0  0  0  0  0
   -0.7145    0.3375    0.0000 O   0  0  0  0  0  0  0  0  0  0  0  0
   -0.0000   -0.9000    0.0000 C   0  0  0  0  0  0  0  0  0  0  0  0
  1  2  1  0  0  0  0
  3  2  1  0  0  0  0
  4  3  2  0  0  0  0
  5  4  1  0  0  0  0
  5  6  1  0  0  0  0
  6  7  1  0  0  0  0
  6  8  2  0  0  0  0
  9  5  2  0  0  0  0
  9 10  1  0  0  0  0
 11  9  1  0  0  0  0
  2 11  2  0  0  0  0
M  END
> <RowID>
1018

> <Original_SMILES>
CC1C=CC(C(N)=O)=C(O)C=1

> <Canonical_QSARr>
CC1C=CC(C(N)=O)=C(O)C=1

> <InChI_Code_QSARr>
InChI=1S/C8H9NO2/c1-5-2-3-6(8(9)11)7(10)4-5/h2-4,10H,1H3,(H2,9,11)

> <InChI Key_QSARr>
OLEJYVBTZPUQDX-UHFFFAOYSA-N

> <Salt_Solvent>


> <Salt_Solvent_ID>
0

> <Number of connected components>
1

$$$$
Molecule_1019
  Mrv2316 01072400032D          

 31 33  0  0  0  0            999 V2000
    6.9240   -5.1372    0.0000 O   0  0  0  0  0  0  0  0  0  0  0  0
    6.3109   -4.5851    0.0000 S   0  0  0  0  0  0  0  0  0  0  0  0
    6.8629   -3.9720    0.0000 O   0  0  0  0  0  0  0  0  0  0  0  0
    5.7588   -5.1982    0.0000 O   0  0  0  0  0  0  0  0  0  0  0  0
    5.6978   -4.0331    0.0000 C   0  0  0  0  0  0  0  0  0  0  0  0
    5.8693   -3.2261    0.0000 C   0  0  0  0  0  0  0  0  0  0  0  0
    5.2562   -2.6741    0.0000 C   0  0  0  0  0  0  0  0  0  0  0  0
    4.4716   -2.9290    0.0000 C   0  0  0  0  0  0  0  0  0  0  0  0
    4.3001   -3.7360    0.0000 C   0  0  0  0  0  0  0  0  0  0  0  0
    3.5155   -3.9909    0.0000 N   0  0  0  0  0  0  0  0  0  0  0  0
    2.8480   -3.5060    0.0000 C   0  0  0  0  0  0  0  0  0  0  0  0
    2.8480   -2.6810    0.0000 O   0  0  0  0  0  0  0  0  0  0  0  0
    2.1806   -3.9909    0.0000 C   0  0  0  0  0  0  0  0  0  0  0  0
    1.3960   -3.7360    0.0000 N   0  0  0  0  0  0  0  0  0  0  0  0
    1.2244   -2.9290    0.0000 N   0  0  0  0  0  0  0  0  0  0  0  0
    0.4398   -2.6741    0.0000 C   0  0  0  0  0  0  0  0  0  0  0  0
    0.2683   -1.8671    0.0000 C   0  0  0  0  0  0  0  0  0  0  0  0
    0.8814   -1.3151    0.0000 S   0  0  0  0  0  0  0  0  0  0  0  0
    1.4945   -0.7631    0.0000 O   0  0  0  0  0  0  0  0  0  0  0  0
    0.3293   -0.7020    0.0000 O   0  0  0  0  0  0  0  0  0  0  0  0
    1.4334   -1.9282    0.0000 O   0  0  0  0  0  0  0  0  0  0  0  0
   -0.5163   -1.6122    0.0000 C   0  0  0  0  0  0  0  0  0  0  0  0
   -1.1294   -2.1642    0.0000 C   0  0  0  0  0  0  0  0  0  0  0  0
   -1.9141   -1.9093    0.0000 C   0  0  0  0  0  0  0  0  0  0  0  0
   -0.9579   -2.9712    0.0000 C   0  0  0  0  0  0  0  0  0  0  0  0
   -1.5710   -3.5232    0.0000 Cl  0  0  0  0  0  0  0  0  0  0  0  0
   -0.1733   -3.2261    0.0000 C   0  0  0  0  0  0  0  0  0  0  0  0
    2.4355   -4.7756    0.0000 C   0  0  0  0  0  0  0  0  0  0  0  0
    1.9506   -5.4430    0.0000 C   0  0  0  0  0  0  0  0  0  0  0  0
    3.2605   -4.7756    0.0000 N   0  0  0  0  0  0  0  0  0  0  0  0
    4.9132   -4.2880    0.0000 C   0  0  0  0  0  0  0  0  0  0  0  0
  1  2  1  0  0  0  0
  2  3  2  0  0  0  0
  2  4  2  0  0  0  0
  2  5  1  0  0  0  0
  6  5  1  0  0  0  0
  7  6  2  0  0  0  0
  8  7  1  0  0  0  0
  9  8  2  0  0  0  0
  9 10  1  0  0  0  0
 11 10  1  0  0  0  0
 11 12  2  0  0  0  0
 13 11  1  0  0  0  0
 14 13  1  4  0  0  0
 14 15  2  0  0  0  0
 15 16  1  0  0  0  0
 17 16  2  0  0  0  0
 17 18  1  0  0  0  0
 18 19  1  0  0  0  0
 18 20  2  0  0  0  0
 18 21  2  0  0  0  0
 22 17  1  0  0  0  0
 23 22  2  0  0  0  0
 23 24  1  0  0  0  0
 25 23  1  0  0  0  0
 25 26  1  0  0  0  0
 27 25  2  0  0  0  0
 16 27  1  0  0  0  0
 28 13  1  0  0  0  0
 28 29  1  0  0  0  0
 30 28  2  0  0  0  0
 10 30  1  0  0  0  0
 31  9  1  0  0  0  0
  5 31  2  0  0  0  0
M  END
> <RowID>
1019

> <Original_SMILES>
[NH4+].[NH4+].[NH4+].[NH4+].CC1=NN(C2C=C(C=CC=2)S([O-])(=O)=O)C(=O)C1N=NC1=CC(Cl)=C(C)C=C1S([O-])(=O)=O

> <Canonical_QSARr>
CC1=NN(C2C=C(C=CC=2)S(O)(=O)=O)C(=O)C1N=NC1C=C(Cl)C(C)=CC=1S(O)(=O)=O

> <InChI_Code_QSARr>
InChI=1S/C17H15ClN4O7S2/c1-9-6-15(31(27,28)29)14(8-13(9)18)19-20-16-10(2)21-22(17(16)23)11-4-3-5-12(7-11)30(24,25)26/h3-8,16H,1-2H3,(H,24,25,26)(H,27,28,29)

> <InChI Key_QSARr>
FLNFGIKCCOPBMZ-UHFFFAOYSA-N

> <Salt_Solvent>
[NH4+]

> <Salt_Solvent_ID>
70

> <Number of connected components>
5

$$$$
Molecule_1020
  Mrv2316 01072400032D          

 26 29  0  0  0  0            999 V2000
    4.5466   -0.5086    0.0000 C   0  0  0  0  0  0  0  0  0  0  0  0
    4.8269    0.2673    0.0000 C   0  0  0  0  0  0  0  0  0  0  0  0
    5.3587   -0.3634    0.0000 C   0  0  0  0  0  0  0  0  0  0  0  0
    6.1708   -0.2182    0.0000 C   0  0  0  0  0  0  0  0  0  0  0  0
    6.4511    0.5577    0.0000 C   0  0  0  0  0  0  0  0  0  0  0  0
    7.2633    0.7029    0.0000 O   0  0  0  0  0  0  0  0  0  0  0  0
    5.9193    1.1884    0.0000 C   0  0  0  0  0  0  0  0  0  0  0  0
    5.1072    1.0432    0.0000 C   0  0  0  0  0  0  0  0  0  0  0  0
    4.5754    1.6739    0.0000 C   0  0  0  0  0  0  0  0  0  0  0  0
    3.7633    1.5287    0.0000 C   0  0  0  0  0  0  0  0  0  0  0  0
    3.4830    0.7528    0.0000 C   0  0  0  0  0  0  0  0  0  0  0  0
    4.0148    0.1221    0.0000 C   0  0  0  0  0  0  0  0  0  0  0  0
    3.7345   -0.6539    0.0000 C   0  0  0  0  0  0  0  0  0  0  0  0
    4.2663   -1.2846    0.0000 O   0  0  0  0  0  0  0  0  0  0  0  0
    2.9224   -0.7991    0.0000 C   0  0  0  0  0  0  0  0  0  0  0  0
    2.3905   -0.1684    0.0000 C   0  0  0  0  0  0  0  0  0  0  0  0
    2.0307   -0.9107    0.0000 C   0  0  0  0  0  0  0  0  0  0  0  0
    2.6708    0.6076    0.0000 C   0  0  0  0  0  0  0  0  0  0  0  0
    2.0195    1.1139    0.0000 C   0  0  0  0  0  0  0  0  0  0  0  0
    1.3367    0.6509    0.0000 C   0  0  0  0  0  0  0  0  0  0  0  0
    1.5660   -0.1416    0.0000 C   0  0  0  0  0  0  0  0  0  0  0  0
    0.8051   -0.4604    0.0000 O   0  0  0  0  0  0  0  0  0  0  0  0
    1.4446   -0.9576    0.0000 C   0  0  0  0  0  0  0  0  0  0  0  0
    2.0906   -1.4707    0.0000 O   0  0  0  0  0  0  0  0  0  0  0  0
    0.6772   -1.2604    0.0000 C   0  0  0  0  0  0  0  0  0  0  0  0
    0.5558   -2.0765    0.0000 O   0  0  0  0  0  0  0  0  0  0  0  0
  1  2  1  0  0  0  0
  3  2  1  0  0  0  0
  4  3  2  0  0  0  0
  5  4  1  0  0  0  0
  5  6  2  0  0  0  0
  7  5  1  0  0  0  0
  8  7  2  0  0  0  0
  8  2  1  0  0  0  0
  9  8  1  0  0  0  0
 10  9  1  0  0  0  0
 11 10  1  0  0  0  0
 11 12  1  0  0  0  0
  2 12  1  0  0  0  0
 12 13  1  0  0  0  0
 13 14  1  0  0  0  0
 13 15  1  0  0  0  0
 15 16  1  0  0  0  0
 16 17  1  0  0  0  0
 18 16  1  0  0  0  0
 18 11  1  0  0  0  0
 19 18  1  0  0  0  0
 20 19  1  0  0  0  0
 21 20  1  0  0  0  0
 16 21  1  0  0  0  0
 21 22  1  0  0  0  0
 21 23  1  0  0  0  0
 23 24  2  0  0  0  0
 23 25  1  0  0  0  0
 25 26  1  0  0  0  0
M  END
> <RowID>
1020

> <Original_SMILES>
CC12C=CC(=O)C=C1CCC1C2C(O)CC2(C)C1CCC2(O)C(=O)CO

> <Canonical_QSARr>
CC12C=CC(=O)C=C1CCC1C2C(O)CC2(C)C1CCC2(O)C(=O)CO

> <InChI_Code_QSARr>
InChI=1S/C21H28O5/c1-19-7-5-13(23)9-12(19)3-4-14-15-6-8-21(26,17(25)11-22)20(15,2)10-16(24)18(14)19/h5,7,9,14-16,18,22,24,26H,3-4,6,8,10-11H2,1-2H3

> <InChI Key_QSARr>
OIGNJSKKLXVSLS-UHFFFAOYSA-N

> <Salt_Solvent>


> <Salt_Solvent_ID>
0

> <Number of connected components>
1

$$$$
Molecule_1023
  Mrv2316 01072400032D          

 39 38  0  0  0  0            999 V2000
    4.3974   -3.7125    0.0000 C   0  0  0  0  0  0  0  0  0  0  0  0
    4.3974   -2.8875    0.0000 C   0  0  0  0  0  0  0  0  0  0  0  0
    3.6829   -2.4750    0.0000 C   0  0  0  0  0  0  0  0  0  0  0  0
    4.0954   -1.7605    0.0000 C   0  0  0  0  0  0  0  0  0  0  0  0
    4.9204   -1.7605    0.0000 O   0  0  0  0  0  0  0  0  0  0  0  0
    5.3329   -1.0460    0.0000 C   0  0  0  0  0  0  0  0  0  0  0  0
    4.9204   -0.3316    0.0000 O   0  0  0  0  0  0  0  0  0  0  0  0
    6.1579   -1.0460    0.0000 C   0  0  0  0  0  0  0  0  0  0  0  0
    6.5704   -0.3316    0.0000 C   0  0  0  0  0  0  0  0  0  0  0  0
    6.1579    0.3829    0.0000 C   0  0  0  0  0  0  0  0  0  0  0  0
    7.3954   -0.3316    0.0000 C   0  0  0  0  0  0  0  0  0  0  0  0
    7.8079    0.3829    0.0000 C   0  0  0  0  0  0  0  0  0  0  0  0
    8.2204    1.0974    0.0000 C   0  0  0  0  0  0  0  0  0  0  0  0
    7.0934    0.7954    0.0000 C   0  0  0  0  0  0  0  0  0  0  0  0
    8.5224   -0.0296    0.0000 C   0  0  0  0  0  0  0  0  0  0  0  0
    3.2704   -3.1895    0.0000 C   0  0  0  0  0  0  0  0  0  0  0  0
    3.6829   -3.9039    0.0000 O   0  0  0  0  0  0  0  0  0  0  0  0
    3.2704   -4.6184    0.0000 C   0  0  0  0  0  0  0  0  0  0  0  0
    3.6829   -5.3329    0.0000 O   0  0  0  0  0  0  0  0  0  0  0  0
    2.4454   -4.6184    0.0000 C   0  0  0  0  0  0  0  0  0  0  0  0
    2.0329   -5.3329    0.0000 C   0  0  0  0  0  0  0  0  0  0  0  0
    2.4454   -6.0473    0.0000 C   0  0  0  0  0  0  0  0  0  0  0  0
    1.2079   -5.3329    0.0000 C   0  0  0  0  0  0  0  0  0  0  0  0
    0.7954   -6.0473    0.0000 C   0  0  0  0  0  0  0  0  0  0  0  0
    0.3829   -6.7618    0.0000 C   0  0  0  0  0  0  0  0  0  0  0  0
    0.0809   -5.6348    0.0000 C   0  0  0  0  0  0  0  0  0  0  0  0
    1.5099   -6.4598    0.0000 C   0  0  0  0  0  0  0  0  0  0  0  0
    2.9684   -2.0625    0.0000 C   0  0  0  0  0  0  0  0  0  0  0  0
    2.2540   -2.4750    0.0000 O   0  0  0  0  0  0  0  0  0  0  0  0
    1.5395   -2.0625    0.0000 C   0  0  0  0  0  0  0  0  0  0  0  0
    0.8250   -2.4750    0.0000 O   0  0  0  0  0  0  0  0  0  0  0  0
    1.5395   -1.2375    0.0000 C   0  0  0  0  0  0  0  0  0  0  0  0
    0.8250   -0.8250    0.0000 C   0  0  0  0  0  0  0  0  0  0  0  0
    0.1105   -1.2375    0.0000 C   0  0  0  0  0  0  0  0  0  0  0  0
    0.8250    0.0000    0.0000 C   0  0  0  0  0  0  0  0  0  0  0  0
    1.5395    0.4125    0.0000 C   0  0  0  0  0  0  0  0  0  0  0  0
    1.9520   -0.3020    0.0000 C   0  0  0  0  0  0  0  0  0  0  0  0
    1.1270    1.1270    0.0000 C   0  0  0  0  0  0  0  0  0  0  0  0
    2.2540    0.8250    0.0000 C   0  0  0  0  0  0  0  0  0  0  0  0
  1  2  1  0  0  0  0
  2  3  1  0  0  0  0
  3  4  1  0  0  0  0
  4  5  1  0  0  0  0
  5  6  1  0  0  0  0
  6  7  2  0  0  0  0
  6  8  1  0  0  0  0
  8  9  1  0  0  0  0
  9 10  1  0  0  0  0
  9 11  1  0  0  0  0
 11 12  1  0  0  0  0
 12 13  1  0  0  0  0
 12 14  1  0  0  0  0
 12 15  1  0  0  0  0
  3 16  1  0  0  0  0
 16 17  1  0  0  0  0
 17 18  1  0  0  0  0
 18 19  2  0  0  0  0
 18 20  1  0  0  0  0
 20 21  1  0  0  0  0
 21 22  1  0  0  0  0
 21 23  1  0  0  0  0
 23 24  1  0  0  0  0
 24 25  1  0  0  0  0
 24 26  1  0  0  0  0
 24 27  1  0  0  0  0
  3 28  1  0  0  0  0
 28 29  1  0  0  0  0
 29 30  1  0  0  0  0
 30 31  2  0  0  0  0
 30 32  1  0  0  0  0
 32 33  1  0  0  0  0
 33 34  1  0  0  0  0
 33 35  1  0  0  0  0
 35 36  1  0  0  0  0
 36 37  1  0  0  0  0
 36 38  1  0  0  0  0
 36 39  1  0  0  0  0
M  END
> <RowID>
1023

> <Original_SMILES>
CCC(COC(=O)CC(C)CC(C)(C)C)(COC(=O)CC(C)CC(C)(C)C)COC(=O)CC(C)CC(C)(C)C

> <Canonical_QSARr>
CCC(COC(=O)CC(C)CC(C)(C)C)(COC(=O)CC(C)CC(C)(C)C)COC(=O)CC(C)CC(C)(C)C

> <InChI_Code_QSARr>
InChI=1S/C33H62O6/c1-14-33(21-37-27(34)15-24(2)18-30(5,6)7,22-38-28(35)16-25(3)19-31(8,9)10)23-39-29(36)17-26(4)20-32(11,12)13/h24-26H,14-23H2,1-13H3

> <InChI Key_QSARr>
REYKSYBQEAZBFA-UHFFFAOYSA-N

> <Salt_Solvent>


> <Salt_Solvent_ID>
0

> <Number of connected components>
1

$$$$
Molecule_1025
  Mrv2316 01072400032D          

  6  5  0  0  0  0            999 V2000
   -0.1914    0.7145    0.0000 C   0  0  0  0  0  0  0  0  0  0  0  0
    0.5230    1.1270    0.0000 C   0  0  0  0  0  0  0  0  0  0  0  0
    1.2375    0.7145    0.0000 C   0  0  0  0  0  0  0  0  0  0  0  0
    1.9520    1.1270    0.0000 C   0  0  0  0  0  0  0  0  0  0  0  0
    2.6664    0.7145    0.0000 C   0  0  0  0  0  0  0  0  0  0  0  0
    3.3809    1.1270    0.0000 Br  0  0  0  0  0  0  0  0  0  0  0  0
  1  2  1  0  0  0  0
  2  3  1  0  0  0  0
  3  4  1  0  0  0  0
  4  5  1  0  0  0  0
  5  6  1  0  0  0  0
M  END
> <RowID>
1025

> <Original_SMILES>
CCCCCBr

> <Canonical_QSARr>
CCCCCBr

> <InChI_Code_QSARr>
InChI=1S/C5H11Br/c1-2-3-4-5-6/h2-5H2,1H3

> <InChI Key_QSARr>
YZWKKMVJZFACSU-UHFFFAOYSA-N

> <Salt_Solvent>


> <Salt_Solvent_ID>
0

> <Number of connected components>
1

$$$$
Molecule_1026
  Mrv2316 01072400032D          

 24 23  0  0  0  0            999 V2000
    2.6151    9.7599    0.0000 C   0  0  0  0  0  0  0  0  0  0  0  0
    2.6151    8.9349    0.0000 C   0  0  0  0  0  0  0  0  0  0  0  0
    3.3296    8.5224    0.0000 C   0  0  0  0  0  0  0  0  0  0  0  0
    3.3296    7.6974    0.0000 C   0  0  0  0  0  0  0  0  0  0  0  0
    4.0441    7.2849    0.0000 C   0  0  0  0  0  0  0  0  0  0  0  0
    4.0441    6.4599    0.0000 C   0  0  0  0  0  0  0  0  0  0  0  0
    4.7586    6.0474    0.0000 C   0  0  0  0  0  0  0  0  0  0  0  0
    4.7586    5.2224    0.0000 C   0  0  0  0  0  0  0  0  0  0  0  0
    5.4730    4.8099    0.0000 C   0  0  0  0  0  0  0  0  0  0  0  0
    5.4730    3.9849    0.0000 C   0  0  0  0  0  0  0  0  0  0  0  0
    6.1875    3.5724    0.0000 C   0  0  0  0  0  0  0  0  0  0  0  0
    6.9020    3.9849    0.0000 C   0  0  0  0  0  0  0  0  0  0  0  0
    7.6164    3.5724    0.0000 C   0  0  0  0  0  0  0  0  0  0  0  0
    8.3309    3.9849    0.0000 C   0  0  0  0  0  0  0  0  0  0  0  0
    9.0454    3.5724    0.0000 C   0  0  0  0  0  0  0  0  0  0  0  0
    9.7599    3.9849    0.0000 C   0  0  0  0  0  0  0  0  0  0  0  0
   10.4743    3.5724    0.0000 C   0  0  0  0  0  0  0  0  0  0  0  0
   11.1888    3.9849    0.0000 C   0  0  0  0  0  0  0  0  0  0  0  0
   11.1888    4.8099    0.0000 O   0  0  0  0  0  0  0  0  0  0  0  0
   11.9033    3.5724    0.0000 N   0  0  0  0  0  0  0  0  0  0  0  0
   12.6177    3.9849    0.0000 C   0  0  0  0  0  0  0  0  0  0  0  0
   13.3322    3.5724    0.0000 C   0  0  0  0  0  0  0  0  0  0  0  0
   14.0467    3.9849    0.0000 C   0  0  0  0  0  0  0  0  0  0  0  0
   13.3322    2.7474    0.0000 O   0  0  0  0  0  0  0  0  0  0  0  0
  1  2  1  0  0  0  0
  2  3  1  0  0  0  0
  3  4  1  0  0  0  0
  4  5  1  0  0  0  0
  5  6  1  0  0  0  0
  6  7  1  0  0  0  0
  7  8  1  0  0  0  0
  9  8  1  4  0  0  0
  9 10  2  0  0  0  0
 10 11  1  0  0  0  0
 11 12  1  0  0  0  0
 12 13  1  0  0  0  0
 13 14  1  0  0  0  0
 14 15  1  0  0  0  0
 15 16  1  0  0  0  0
 16 17  1  0  0  0  0
 17 18  1  0  0  0  0
 18 19  2  0  0  0  0
 18 20  1  0  0  0  0
 20 21  1  0  0  0  0
 21 22  1  0  0  0  0
 22 23  1  0  0  0  0
 22 24  1  0  0  0  0
M  END
> <RowID>
1026

> <Original_SMILES>
CCCCCCCCC=CCCCCCCCC(=O)NCC(C)O

> <Canonical_QSARr>
CCCCCCCCC=CCCCCCCCC(=O)NCC(C)O

> <InChI_Code_QSARr>
InChI=1S/C21H41NO2/c1-3-4-5-6-7-8-9-10-11-12-13-14-15-16-17-18-21(24)22-19-20(2)23/h10-11,20,23H,3-9,12-19H2,1-2H3,(H,22,24)

> <InChI Key_QSARr>
UDZAXLGLNUMCRX-UHFFFAOYSA-N

> <Salt_Solvent>


> <Salt_Solvent_ID>
0

> <Number of connected components>
1

$$$$
Molecule_1027
  Mrv2316 01072400032D          

 16 19  0  0  0  0            999 V2000
    0.1277   -1.3126    0.0000 C   0  0  0  0  0  0  0  0  0  0  0  0
    0.4085   -0.5368    0.0000 C   0  0  0  0  0  0  0  0  0  0  0  0
   -0.4106   -0.4386    0.0000 C   0  0  0  0  0  0  0  0  0  0  0  0
    1.1047   -0.9883    0.0000 C   0  0  0  0  0  0  0  0  0  0  0  0
    1.8207   -0.5818    0.0000 C   0  0  0  0  0  0  0  0  0  0  0  0
    1.8189    0.2523    0.0000 C   0  0  0  0  0  0  0  0  0  0  0  0
    1.8970    1.0569    0.0000 O   0  0  0  0  0  0  0  0  0  0  0  0
    1.0910    0.7332    0.0000 C   0  0  0  0  0  0  0  0  0  0  0  0
    0.3129    0.3386    0.0000 C   0  0  0  0  0  0  0  0  0  0  0  0
   -0.4432    0.9996    0.0000 C   0  0  0  0  0  0  0  0  0  0  0  0
   -0.1232    1.4514    0.0000 C   0  0  0  0  0  0  0  0  0  0  0  0
    0.7552    1.5225    0.0000 C   0  0  0  0  0  0  0  0  0  0  0  0
    0.7814    2.3470    0.0000 C   0  0  0  0  0  0  0  0  0  0  0  0
    1.4734    1.9285    0.0000 C   0  0  0  0  0  0  0  0  0  0  0  0
   -0.8634    0.6713    0.0000 C   0  0  0  0  0  0  0  0  0  0  0  0
   -0.4023   -0.0570    0.0000 C   0  0  0  0  0  0  0  0  0  0  0  0
  1  2  1  0  0  0  0
  2  3  1  0  0  0  0
  4  2  1  0  0  0  0
  5  4  1  0  0  0  0
  6  5  1  0  0  0  0
  6  7  1  0  0  0  0
  7  8  1  0  0  0  0
  8  6  1  0  0  0  0
  8  9  1  0  0  0  0
  2  9  1  0  0  0  0
 10  9  1  0  0  0  0
 11 10  1  0  0  0  0
 11 12  1  0  0  0  0
 12  8  1  0  0  0  0
 12 13  1  0  0  0  0
 12 14  1  0  0  0  0
 15 11  1  0  0  0  0
 16 15  1  0  0  0  0
  9 16  1  0  0  0  0
M  END
> <RowID>
1027

> <Original_SMILES>
CC1(C)CCC2OC32C21CC(CC2)C3(C)C

> <Canonical_QSARr>
CC1(C)CCC2OC32C21CC(CC2)C3(C)C

> <InChI_Code_QSARr>
InChI=1S/C15H24O/c1-12(2)7-6-11-15(16-11)13(3,4)10-5-8-14(12,15)9-10/h10-11H,5-9H2,1-4H3

> <InChI Key_QSARr>
VQHLGZRKOZIABH-UHFFFAOYSA-N

> <Salt_Solvent>


> <Salt_Solvent_ID>
0

> <Number of connected components>
1

$$$$
Molecule_1030
  Mrv2316 01072400032D          

 24 23  0  0  0  0            999 V2000
   11.6605    7.5572    0.0000 O   0  0  0  0  0  0  0  0  0  0  0  0
   12.3750    7.1447    0.0000 C   0  0  0  0  0  0  0  0  0  0  0  0
   12.3750    6.3197    0.0000 O   0  0  0  0  0  0  0  0  0  0  0  0
   13.0895    7.5572    0.0000 C   0  0  0  0  0  0  0  0  0  0  0  0
   13.8039    7.1447    0.0000 C   0  0  0  0  0  0  0  0  0  0  0  0
   14.5184    7.5572    0.0000 C   0  0  0  0  0  0  0  0  0  0  0  0
   15.2329    7.1447    0.0000 C   0  0  0  0  0  0  0  0  0  0  0  0
   15.9473    7.5572    0.0000 C   0  0  0  0  0  0  0  0  0  0  0  0
   16.6618    7.1447    0.0000 C   0  0  0  0  0  0  0  0  0  0  0  0
   17.3763    7.5572    0.0000 C   0  0  0  0  0  0  0  0  0  0  0  0
   18.0908    7.1447    0.0000 C   0  0  0  0  0  0  0  0  0  0  0  0
   18.8052    7.5572    0.0000 C   0  0  0  0  0  0  0  0  0  0  0  0
   19.5197    7.1447    0.0000 C   0  0  0  0  0  0  0  0  0  0  0  0
   20.2342    7.5572    0.0000 C   0  0  0  0  0  0  0  0  0  0  0  0
   20.9486    7.1447    0.0000 C   0  0  0  0  0  0  0  0  0  0  0  0
   21.6631    7.5572    0.0000 C   0  0  0  0  0  0  0  0  0  0  0  0
   22.3776    7.1447    0.0000 C   0  0  0  0  0  0  0  0  0  0  0  0
   23.0921    7.5572    0.0000 C   0  0  0  0  0  0  0  0  0  0  0  0
   23.8065    7.1447    0.0000 C   0  0  0  0  0  0  0  0  0  0  0  0
   24.5210    7.5572    0.0000 C   0  0  0  0  0  0  0  0  0  0  0  0
   25.2355    7.1447    0.0000 C   0  0  0  0  0  0  0  0  0  0  0  0
   25.9499    7.5572    0.0000 C   0  0  0  0  0  0  0  0  0  0  0  0
   26.6644    7.1447    0.0000 C   0  0  0  0  0  0  0  0  0  0  0  0
   27.3789    7.5572    0.0000 C   0  0  0  0  0  0  0  0  0  0  0  0
  1  2  1  0  0  0  0
  2  3  2  0  0  0  0
  2  4  1  0  0  0  0
  4  5  1  0  0  0  0
  5  6  1  0  0  0  0
  6  7  1  0  0  0  0
  7  8  1  0  0  0  0
  8  9  1  0  0  0  0
  9 10  1  0  0  0  0
 10 11  1  0  0  0  0
 11 12  1  0  0  0  0
 12 13  1  0  0  0  0
 13 14  1  0  0  0  0
 14 15  1  0  0  0  0
 15 16  1  0  0  0  0
 16 17  1  0  0  0  0
 17 18  1  0  0  0  0
 18 19  1  0  0  0  0
 19 20  1  0  0  0  0
 20 21  1  0  0  0  0
 21 22  1  0  0  0  0
 22 23  1  0  0  0  0
 23 24  1  0  0  0  0
M  END
> <RowID>
1030

> <Original_SMILES>
[Li+].CCCCCCCCCCCCCCCCCCCCCC([O-])=O

> <Canonical_QSARr>
CCCCCCCCCCCCCCCCCCCCCC(O)=O

> <InChI_Code_QSARr>
InChI=1S/C22H44O2/c1-2-3-4-5-6-7-8-9-10-11-12-13-14-15-16-17-18-19-20-21-22(23)24/h2-21H2,1H3,(H,23,24)

> <InChI Key_QSARr>
UKMSUNONTOPOIO-UHFFFAOYSA-N

> <Salt_Solvent>
[Li+]

> <Salt_Solvent_ID>
30

> <Number of connected components>
2

$$$$
Molecule_1031
  Mrv2316 01072400032D          

 26 26  0  0  0  0            999 V2000
   -2.4731   -2.4750    0.0000 C   0  0  0  0  0  0  0  0  0  0  0  0
   -1.7587   -2.8875    0.0000 C   0  0  0  0  0  0  0  0  0  0  0  0
   -1.0442   -2.4750    0.0000 C   0  0  0  0  0  0  0  0  0  0  0  0
   -0.3297   -2.8875    0.0000 C   0  0  0  0  0  0  0  0  0  0  0  0
    0.3847   -2.4750    0.0000 C   0  0  0  0  0  0  0  0  0  0  0  0
    1.0992   -2.8875    0.0000 C   0  0  0  0  0  0  0  0  0  0  0  0
    1.8137   -2.4750    0.0000 C   0  0  0  0  0  0  0  0  0  0  0  0
    1.8137   -1.6500    0.0000 C   0  0  0  0  0  0  0  0  0  0  0  0
    1.0992   -1.2375    0.0000 O   0  0  0  0  0  0  0  0  0  0  0  0
    1.0992   -0.4125    0.0000 C   0  0  0  0  0  0  0  0  0  0  0  0
    1.8137   -0.0000    0.0000 C   0  0  0  0  0  0  0  0  0  0  0  0
    1.8137    0.8250    0.0000 C   0  0  0  0  0  0  0  0  0  0  0  0
    1.0992    1.2375    0.0000 C   0  0  0  0  0  0  0  0  0  0  0  0
    0.3847    0.8250    0.0000 C   0  0  0  0  0  0  0  0  0  0  0  0
    0.3847   -0.0000    0.0000 C   0  0  0  0  0  0  0  0  0  0  0  0
   -0.3297   -0.4125    0.0000 C   0  0  0  0  0  0  0  0  0  0  0  0
   -0.3297   -1.2375    0.0000 N   0  0  0  0  0  0  0  0  0  0  0  0
   -1.0442   -0.0000    0.0000 O   0  0  0  0  0  0  0  0  0  0  0  0
    2.5281   -2.8875    0.0000 C   0  0  0  0  0  0  0  0  0  0  0  0
    3.2426   -2.4750    0.0000 C   0  0  0  0  0  0  0  0  0  0  0  0
    3.9571   -2.8875    0.0000 C   0  0  0  0  0  0  0  0  0  0  0  0
    4.6716   -2.4750    0.0000 C   0  0  0  0  0  0  0  0  0  0  0  0
    5.3860   -2.8875    0.0000 C   0  0  0  0  0  0  0  0  0  0  0  0
    6.1005   -2.4750    0.0000 C   0  0  0  0  0  0  0  0  0  0  0  0
    6.8150   -2.8875    0.0000 C   0  0  0  0  0  0  0  0  0  0  0  0
    7.5294   -2.4750    0.0000 C   0  0  0  0  0  0  0  0  0  0  0  0
  1  2  1  0  0  0  0
  2  3  1  0  0  0  0
  3  4  1  0  0  0  0
  4  5  1  0  0  0  0
  5  6  1  0  0  0  0
  6  7  1  0  0  0  0
  7  8  1  0  0  0  0
  8  9  1  0  0  0  0
  9 10  1  0  0  0  0
 11 10  2  0  0  0  0
 12 11  1  0  0  0  0
 13 12  2  0  0  0  0
 14 13  1  0  0  0  0
 15 14  2  0  0  0  0
 10 15  1  0  0  0  0
 15 16  1  0  0  0  0
 16 17  1  0  0  0  0
 16 18  2  0  0  0  0
  7 19  1  0  0  0  0
 19 20  1  0  0  0  0
 20 21  1  0  0  0  0
 21 22  1  0  0  0  0
 22 23  1  0  0  0  0
 23 24  1  0  0  0  0
 24 25  1  0  0  0  0
 25 26  1  0  0  0  0
M  END
> <RowID>
1031

> <Original_SMILES>
CCCCCCC(COC1=CC=CC=C1C(N)=O)CCCCCCCC

> <Canonical_QSARr>
CCCCCCC(COC1=CC=CC=C1C(N)=O)CCCCCCCC

> <InChI_Code_QSARr>
InChI=1S/C23H39NO2/c1-3-5-7-9-10-12-16-20(15-11-8-6-4-2)19-26-22-18-14-13-17-21(22)23(24)25/h13-14,17-18,20H,3-12,15-16,19H2,1-2H3,(H2,24,25)

> <InChI Key_QSARr>
CMQJSECIJIYKFU-UHFFFAOYSA-N

> <Salt_Solvent>


> <Salt_Solvent_ID>
0

> <Number of connected components>
1

$$$$
Molecule_1032
  Mrv2316 01072400032D          

  5  4  0  0  0  0            999 V2000
    2.0625   -0.7145    0.0000 O   0  0  0  0  0  0  0  0  0  0  0  0
    1.2375   -0.7145    0.0000 C   0  0  0  0  0  0  0  0  0  0  0  0
    0.8250   -1.4289    0.0000 O   0  0  0  0  0  0  0  0  0  0  0  0
    0.8250   -0.0000    0.0000 C   0  0  0  0  0  0  0  0  0  0  0  0
    0.0000   -0.0000    0.0000 C   0  0  0  0  0  0  0  0  0  0  0  0
  1  2  1  0  0  0  0
  2  3  2  0  0  0  0
  2  4  1  0  0  0  0
  4  5  1  0  0  0  0
M  END
> <RowID>
1032

> <Original_SMILES>
[Zr+4].CCC([O-])=O.CCC([O-])=O.CCC([O-])=O.CCC([O-])=O

> <Canonical_QSARr>
CCC(O)=O

> <InChI_Code_QSARr>
InChI=1S/C3H6O2/c1-2-3(4)5/h2H2,1H3,(H,4,5)

> <InChI Key_QSARr>
XBDQKXXYIPTUBI-UHFFFAOYSA-N

> <Salt_Solvent>
[Zr+4]

> <Salt_Solvent_ID>
400

> <Number of connected components>
5

$$$$
Molecule_1033
  Mrv2316 01072400032D          

 42 45  0  0  0  0            999 V2000
    4.2824   -3.0047    0.0000 N   0  0  0  0  0  0  0  0  0  0  0  0
    3.4977   -3.2597    0.0000 C   0  0  0  0  0  0  0  0  0  0  0  0
    2.8303   -2.7748    0.0000 C   0  0  0  0  0  0  0  0  0  0  0  0
    2.8303   -1.9498    0.0000 S   0  0  0  0  0  0  0  0  0  0  0  0
    2.1158   -1.5373    0.0000 S   0  0  0  0  0  0  0  0  0  0  0  0
    2.1158   -0.7123    0.0000 C   0  0  0  0  0  0  0  0  0  0  0  0
    2.7833   -0.2273    0.0000 C   0  0  0  0  0  0  0  0  0  0  0  0
    3.5679   -0.4823    0.0000 C   0  0  0  0  0  0  0  0  0  0  0  0
    4.3525   -0.7372    0.0000 N   0  0  0  0  0  0  0  0  0  0  0  0
    2.5283    0.5573    0.0000 N   0  0  0  0  0  0  0  0  0  0  0  0
    1.7033    0.5573    0.0000 N   0  0  0  0  0  0  0  0  0  0  0  0
    1.2184    1.2247    0.0000 C   0  0  0  0  0  0  0  0  0  0  0  0
    1.5540    1.9784    0.0000 C   0  0  0  0  0  0  0  0  0  0  0  0
    2.3745    2.0646    0.0000 Cl  0  0  0  0  0  0  0  0  0  0  0  0
    1.0690    2.6458    0.0000 C   0  0  0  0  0  0  0  0  0  0  0  0
    0.2486    2.5596    0.0000 C   0  0  0  0  0  0  0  0  0  0  0  0
   -0.2364    3.2271    0.0000 C   0  0  0  0  0  0  0  0  0  0  0  0
   -0.7213    3.8945    0.0000 F   0  0  0  0  0  0  0  0  0  0  0  0
   -0.9038    2.7421    0.0000 F   0  0  0  0  0  0  0  0  0  0  0  0
    0.4311    3.7120    0.0000 F   0  0  0  0  0  0  0  0  0  0  0  0
   -0.0870    1.8059    0.0000 C   0  0  0  0  0  0  0  0  0  0  0  0
    0.3979    1.1385    0.0000 C   0  0  0  0  0  0  0  0  0  0  0  0
    0.0624    0.3848    0.0000 Cl  0  0  0  0  0  0  0  0  0  0  0  0
    1.4484   -0.2273    0.0000 C   0  0  0  0  0  0  0  0  0  0  0  0
    0.6638   -0.4823    0.0000 N   0  0  0  0  0  0  0  0  0  0  0  0
    2.1629   -3.2597    0.0000 C   0  0  0  0  0  0  0  0  0  0  0  0
    1.3782   -3.0047    0.0000 C   0  0  0  0  0  0  0  0  0  0  0  0
    0.5936   -2.7498    0.0000 N   0  0  0  0  0  0  0  0  0  0  0  0
    2.4178   -4.0443    0.0000 N   0  0  0  0  0  0  0  0  0  0  0  0
    3.2428   -4.0443    0.0000 N   0  0  0  0  0  0  0  0  0  0  0  0
    3.7277   -4.7117    0.0000 C   0  0  0  0  0  0  0  0  0  0  0  0
    3.3922   -5.4654    0.0000 C   0  0  0  0  0  0  0  0  0  0  0  0
    2.5717   -5.5516    0.0000 Cl  0  0  0  0  0  0  0  0  0  0  0  0
    3.8771   -6.1328    0.0000 C   0  0  0  0  0  0  0  0  0  0  0  0
    4.6976   -6.0466    0.0000 C   0  0  0  0  0  0  0  0  0  0  0  0
    5.1825   -6.7141    0.0000 C   0  0  0  0  0  0  0  0  0  0  0  0
    5.6674   -7.3815    0.0000 F   0  0  0  0  0  0  0  0  0  0  0  0
    4.5151   -7.1990    0.0000 F   0  0  0  0  0  0  0  0  0  0  0  0
    5.8499   -6.2291    0.0000 F   0  0  0  0  0  0  0  0  0  0  0  0
    5.0331   -5.2929    0.0000 C   0  0  0  0  0  0  0  0  0  0  0  0
    4.5482   -4.6255    0.0000 C   0  0  0  0  0  0  0  0  0  0  0  0
    4.8838   -3.8718    0.0000 Cl  0  0  0  0  0  0  0  0  0  0  0  0
  1  2  1  0  0  0  0
  3  2  2  0  0  0  0
  3  4  1  0  0  0  0
  4  5  1  0  0  0  0
  5  6  1  0  0  0  0
  7  6  1  0  0  0  0
  7  8  1  0  0  0  0
  8  9  3  0  0  0  0
 10  7  2  0  0  0  0
 11 10  1  0  0  0  0
 11 12  1  0  0  0  0
 13 12  1  0  0  0  0
 13 14  1  0  0  0  0
 15 13  2  0  0  0  0
 16 15  1  0  0  0  0
 16 17  1  0  0  0  0
 17 18  1  0  0  0  0
 17 19  1  0  0  0  0
 17 20  1  0  0  0  0
 21 16  2  0  0  0  0
 22 21  1  0  0  0  0
 12 22  2  0  0  0  0
 22 23  1  0  0  0  0
 24 11  1  0  0  0  0
  6 24  2  0  0  0  0
 24 25  1  0  0  0  0
 26  3  1  0  0  0  0
 26 27  1  0  0  0  0
 27 28  3  0  0  0  0
 29 26  2  0  0  0  0
 30 29  1  0  0  0  0
  2 30  1  0  0  0  0
 30 31  1  0  0  0  0
 32 31  1  0  0  0  0
 32 33  1  0  0  0  0
 34 32  2  0  0  0  0
 35 34  1  0  0  0  0
 35 36  1  0  0  0  0
 36 37  1  0  0  0  0
 36 38  1  0  0  0  0
 36 39  1  0  0  0  0
 40 35  2  0  0  0  0
 41 40  1  0  0  0  0
 31 41  2  0  0  0  0
 41 42  1  0  0  0  0
M  END
> <RowID>
1033

> <Original_SMILES>
NC1=C(SSC2C(C#N)=NN(C3C(Cl)=CC(=CC=3Cl)C(F)(F)F)C=2N)C(C#N)=NN1C1C(Cl)=CC(=CC=1Cl)C(F)(F)F

> <Canonical_QSARr>
NC1=C(SSC2C(C#N)=NN(C3C(Cl)=CC(=CC=3Cl)C(F)(F)F)C=2N)C(C#N)=NN1C1C(Cl)=CC(=CC=1Cl)C(F)(F)F

> <InChI_Code_QSARr>
InChI=1S/C22H8Cl4F6N8S2/c23-9-1-7(21(27,28)29)2-10(24)15(9)39-19(35)17(13(5-33)37-39)41-42-18-14(6-34)38-40(20(18)36)16-11(25)3-8(4-12(16)26)22(30,31)32/h1-4H,35-36H2

> <InChI Key_QSARr>
KYWRZLCFDFEWBI-UHFFFAOYSA-N

> <Salt_Solvent>


> <Salt_Solvent_ID>
0

> <Number of connected components>
1

$$$$
Molecule_1034
  Mrv2316 01072400032D          

 42 46  0  0  0  0            999 V2000
   -0.3062   -3.0643    0.0000 C   0  0  0  0  0  0  0  0  0  0  0  0
   -0.3062   -3.8893    0.0000 O   0  0  0  0  0  0  0  0  0  0  0  0
    0.4083   -4.3018    0.0000 C   0  0  0  0  0  0  0  0  0  0  0  0
    0.4083   -5.1268    0.0000 C   0  0  0  0  0  0  0  0  0  0  0  0
    1.1228   -5.5393    0.0000 C   0  0  0  0  0  0  0  0  0  0  0  0
    1.8372   -5.1268    0.0000 C   0  0  0  0  0  0  0  0  0  0  0  0
    2.5517   -5.5393    0.0000 C   0  0  0  0  0  0  0  0  0  0  0  0
    3.2662   -5.1268    0.0000 O   0  0  0  0  0  0  0  0  0  0  0  0
    2.5517   -6.3643    0.0000 N   0  0  0  0  0  0  0  0  0  0  0  0
    3.2662   -6.7768    0.0000 C   0  0  0  0  0  0  0  0  0  0  0  0
    3.2662   -7.6018    0.0000 C   0  0  0  0  0  0  0  0  0  0  0  0
    3.9806   -8.0143    0.0000 C   0  0  0  0  0  0  0  0  0  0  0  0
    4.6951   -7.6018    0.0000 C   0  0  0  0  0  0  0  0  0  0  0  0
    4.6951   -6.7768    0.0000 C   0  0  0  0  0  0  0  0  0  0  0  0
    3.9806   -6.3643    0.0000 C   0  0  0  0  0  0  0  0  0  0  0  0
    1.8372   -4.3018    0.0000 C   0  0  0  0  0  0  0  0  0  0  0  0
    1.1228   -3.8893    0.0000 C   0  0  0  0  0  0  0  0  0  0  0  0
    1.1228   -3.0643    0.0000 N   0  0  0  0  0  0  0  0  0  0  0  0
    0.4083   -2.6518    0.0000 N   0  0  0  0  0  0  0  0  0  0  0  0
    0.4083   -1.8268    0.0000 C   0  0  0  0  0  0  0  0  0  0  0  0
   -0.3062   -1.4143    0.0000 C   0  0  0  0  0  0  0  0  0  0  0  0
   -1.0207   -1.8268    0.0000 O   0  0  0  0  0  0  0  0  0  0  0  0
   -0.3062   -0.5893    0.0000 C   0  0  0  0  0  0  0  0  0  0  0  0
   -1.0207   -0.1768    0.0000 C   0  0  0  0  0  0  0  0  0  0  0  0
   -1.7351   -0.5893    0.0000 O   0  0  0  0  0  0  0  0  0  0  0  0
   -1.0207    0.6482    0.0000 N   0  0  0  0  0  0  0  0  0  0  0  0
   -1.7351    1.0607    0.0000 C   0  0  0  0  0  0  0  0  0  0  0  0
   -1.7351    1.8857    0.0000 C   0  0  0  0  0  0  0  0  0  0  0  0
   -2.4496    2.2982    0.0000 C   0  0  0  0  0  0  0  0  0  0  0  0
   -2.4496    3.1232    0.0000 Cl  0  0  0  0  0  0  0  0  0  0  0  0
   -3.1641    1.8857    0.0000 C   0  0  0  0  0  0  0  0  0  0  0  0
   -3.1641    1.0607    0.0000 C   0  0  0  0  0  0  0  0  0  0  0  0
   -2.4496    0.6482    0.0000 C   0  0  0  0  0  0  0  0  0  0  0  0
   -2.4496   -0.1768    0.0000 O   0  0  0  0  0  0  0  0  0  0  0  0
   -3.1641   -0.5893    0.0000 C   0  0  0  0  0  0  0  0  0  0  0  0
    0.4083   -0.1768    0.0000 C   0  0  0  0  0  0  0  0  0  0  0  0
    1.1228   -0.5893    0.0000 C   0  0  0  0  0  0  0  0  0  0  0  0
    1.8372   -0.1768    0.0000 C   0  0  0  0  0  0  0  0  0  0  0  0
    2.5517   -0.5893    0.0000 C   0  0  0  0  0  0  0  0  0  0  0  0
    2.5517   -1.4143    0.0000 C   0  0  0  0  0  0  0  0  0  0  0  0
    1.8372   -1.8268    0.0000 C   0  0  0  0  0  0  0  0  0  0  0  0
    1.1228   -1.4143    0.0000 C   0  0  0  0  0  0  0  0  0  0  0  0
  1  2  1  0  0  0  0
  2  3  1  0  0  0  0
  4  3  1  0  0  0  0
  5  4  2  0  0  0  0
  6  5  1  0  0  0  0
  6  7  1  0  0  0  0
  7  8  2  0  0  0  0
  7  9  1  0  0  0  0
  9 10  1  0  0  0  0
 11 10  1  0  0  0  0
 12 11  2  0  0  0  0
 13 12  1  0  0  0  0
 14 13  2  0  0  0  0
 15 14  1  0  0  0  0
 10 15  2  0  0  0  0
 16  6  2  0  0  0  0
 17 16  1  0  0  0  0
  3 17  2  0  0  0  0
 18 17  1  4  0  0  0
 18 19  2  0  0  0  0
 19 20  1  0  0  0  0
 21 20  1  0  0  0  0
 21 22  1  0  0  0  0
 23 21  2  0  0  0  0
 23 24  1  0  0  0  0
 24 25  2  0  0  0  0
 24 26  1  0  0  0  0
 26 27  1  0  0  0  0
 28 27  1  0  0  0  0
 29 28  2  0  0  0  0
 29 30  1  0  0  0  0
 31 29  1  0  0  0  0
 32 31  2  0  0  0  0
 33 32  1  0  0  0  0
 27 33  2  0  0  0  0
 33 34  1  0  0  0  0
 34 35  1  0  0  0  0
 36 23  1  0  0  0  0
 37 36  2  0  0  0  0
 37 38  1  0  0  0  0
 38 39  2  0  0  0  0
 39 40  1  0  0  0  0
 40 41  2  0  0  0  0
 41 42  1  0  0  0  0
 20 42  2  0  0  0  0
 42 37  1  0  0  0  0
M  END
> <RowID>
1034

> <Original_SMILES>
COC1C=CC(=CC=1N=NC1C(O)=C(C=C2C=CC=CC2=1)C(=O)NC1C=C(Cl)C=CC=1OC)C(=O)NC1C=CC=CC=1

> <Canonical_QSARr>
COC1C=CC(=CC=1N=NC1C(O)=C(C=C2C=CC=CC2=1)C(=O)NC1C=C(Cl)C=CC=1OC)C(=O)NC1C=CC=CC=1

> <InChI_Code_QSARr>
InChI=1S/C32H25ClN4O5/c1-41-27-15-13-21(33)18-25(27)35-32(40)24-16-19-8-6-7-11-23(19)29(30(24)38)37-36-26-17-20(12-14-28(26)42-2)31(39)34-22-9-4-3-5-10-22/h3-18,38H,1-2H3,(H,34,39)(H,35,40)

> <InChI Key_QSARr>
IBHCUBFBUGYOHF-UHFFFAOYSA-N

> <Salt_Solvent>


> <Salt_Solvent_ID>
0

> <Number of connected components>
1

$$$$
Molecule_1035
  Mrv2316 01072400032D          

 16 15  0  0  0  0            999 V2000
    3.5211    2.8579    0.0000 C   0  0  0  0  0  0  0  0  0  0  0  0
    4.2355    3.2704    0.0000 C   0  0  0  0  0  0  0  0  0  0  0  0
    4.2355    4.0954    0.0000 O   0  0  0  0  0  0  0  0  0  0  0  0
    4.9500    2.8579    0.0000 C   0  0  0  0  0  0  0  0  0  0  0  0
    5.6645    3.2704    0.0000 O   0  0  0  0  0  0  0  0  0  0  0  0
    6.3789    2.8579    0.0000 C   0  0  0  0  0  0  0  0  0  0  0  0
    6.3789    2.0329    0.0000 O   0  0  0  0  0  0  0  0  0  0  0  0
    7.0934    3.2704    0.0000 N   0  0  0  0  0  0  0  0  0  0  0  0
    7.8079    2.8579    0.0000 N   0  0  0  0  0  0  0  0  0  0  0  0
    8.5224    3.2704    0.0000 C   0  0  0  0  0  0  0  0  0  0  0  0
    8.5224    4.0954    0.0000 O   0  0  0  0  0  0  0  0  0  0  0  0
    9.2368    2.8579    0.0000 O   0  0  0  0  0  0  0  0  0  0  0  0
    9.9513    3.2704    0.0000 C   0  0  0  0  0  0  0  0  0  0  0  0
    9.9513    4.0954    0.0000 C   0  0  0  0  0  0  0  0  0  0  0  0
   10.6658    2.8579    0.0000 C   0  0  0  0  0  0  0  0  0  0  0  0
   11.3802    3.2704    0.0000 O   0  0  0  0  0  0  0  0  0  0  0  0
  1  2  1  0  0  0  0
  2  3  1  0  0  0  0
  2  4  1  0  0  0  0
  4  5  1  0  0  0  0
  5  6  1  0  0  0  0
  6  7  2  0  0  0  0
  6  8  1  0  0  0  0
  8  9  1  0  0  0  0
  9 10  1  0  0  0  0
 10 11  2  0  0  0  0
 10 12  1  0  0  0  0
 12 13  1  0  0  0  0
 13 14  1  0  0  0  0
 13 15  1  0  0  0  0
 15 16  1  0  0  0  0
M  END
> <RowID>
1035

> <Original_SMILES>
CC(O)COC(=O)NNC(=O)OC(C)CO

> <Canonical_QSARr>
CC(O)COC(=O)NNC(=O)OC(C)CO

> <InChI_Code_QSARr>
InChI=1S/C8H16N2O6/c1-5(12)4-15-7(13)9-10-8(14)16-6(2)3-11/h5-6,11-12H,3-4H2,1-2H3,(H,9,13)(H,10,14)

> <InChI Key_QSARr>
UKJAHHCXAISYMO-UHFFFAOYSA-N

> <Salt_Solvent>


> <Salt_Solvent_ID>
0

> <Number of connected components>
1

$$$$
Molecule_1036
  Mrv2316 01072400032D          

 28 29  0  0  0  0            999 V2000
    5.7158    0.0884    0.0000 C   0  0  0  0  0  0  0  0  0  0  0  0
    5.0013   -0.3241    0.0000 C   0  0  0  0  0  0  0  0  0  0  0  0
    4.2868    0.0884    0.0000 C   0  0  0  0  0  0  0  0  0  0  0  0
    3.5724   -0.3241    0.0000 C   0  0  0  0  0  0  0  0  0  0  0  0
    2.8579    0.0884    0.0000 C   0  0  0  0  0  0  0  0  0  0  0  0
    2.8579    0.9134    0.0000 C   0  0  0  0  0  0  0  0  0  0  0  0
    2.1434    1.3259    0.0000 C   0  0  0  0  0  0  0  0  0  0  0  0
    2.1434    2.1509    0.0000 C   0  0  0  0  0  0  0  0  0  0  0  0
    2.1434    2.9759    0.0000 C   0  0  0  0  0  0  0  0  0  0  0  0
    1.3184    2.1509    0.0000 C   0  0  0  0  0  0  0  0  0  0  0  0
    2.9684    2.1509    0.0000 C   0  0  0  0  0  0  0  0  0  0  0  0
    1.4290    0.9134    0.0000 C   0  0  0  0  0  0  0  0  0  0  0  0
    0.7145    1.3259    0.0000 O   0  0  0  0  0  0  0  0  0  0  0  0
    1.4290    0.0884    0.0000 C   0  0  0  0  0  0  0  0  0  0  0  0
    2.1434   -0.3241    0.0000 C   0  0  0  0  0  0  0  0  0  0  0  0
    2.1434   -1.1491    0.0000 C   0  0  0  0  0  0  0  0  0  0  0  0
    3.5724   -1.1491    0.0000 C   0  0  0  0  0  0  0  0  0  0  0  0
    2.8579   -1.5616    0.0000 C   0  0  0  0  0  0  0  0  0  0  0  0
    2.8579   -2.3866    0.0000 C   0  0  0  0  0  0  0  0  0  0  0  0
    2.1434   -2.7991    0.0000 C   0  0  0  0  0  0  0  0  0  0  0  0
    1.4290   -3.2116    0.0000 C   0  0  0  0  0  0  0  0  0  0  0  0
    1.7309   -2.0846    0.0000 C   0  0  0  0  0  0  0  0  0  0  0  0
    2.5559   -3.5136    0.0000 C   0  0  0  0  0  0  0  0  0  0  0  0
    3.5724   -2.7991    0.0000 C   0  0  0  0  0  0  0  0  0  0  0  0
    3.5724   -3.6241    0.0000 O   0  0  0  0  0  0  0  0  0  0  0  0
    4.2868   -2.3866    0.0000 C   0  0  0  0  0  0  0  0  0  0  0  0
    4.2868   -1.5616    0.0000 C   0  0  0  0  0  0  0  0  0  0  0  0
    5.0013   -1.1491    0.0000 C   0  0  0  0  0  0  0  0  0  0  0  0
  1  2  1  0  0  0  0
  2  3  1  0  0  0  0
  3  4  1  0  0  0  0
  4  5  1  0  0  0  0
  6  5  2  0  0  0  0
  7  6  1  0  0  0  0
  7  8  1  0  0  0  0
  8  9  1  0  0  0  0
  8 10  1  0  0  0  0
  8 11  1  0  0  0  0
 12  7  2  0  0  0  0
 12 13  1  0  0  0  0
 14 12  1  0  0  0  0
 15 14  2  0  0  0  0
  5 15  1  0  0  0  0
 15 16  1  0  0  0  0
  4 17  1  0  0  0  0
 18 17  2  0  0  0  0
 19 18  1  0  0  0  0
 19 20  1  0  0  0  0
 20 21  1  0  0  0  0
 20 22  1  0  0  0  0
 20 23  1  0  0  0  0
 24 19  2  0  0  0  0
 24 25  1  0  0  0  0
 26 24  1  0  0  0  0
 27 26  2  0  0  0  0
 17 27  1  0  0  0  0
 27 28  1  0  0  0  0
M  END
> <RowID>
1036

> <Original_SMILES>
CCCC(C1=CC(=C(O)C=C1C)C(C)(C)C)C1=CC(=C(O)C=C1C)C(C)(C)C

> <Canonical_QSARr>
CCCC(C1=CC(=C(O)C=C1C)C(C)(C)C)C1=CC(=C(O)C=C1C)C(C)(C)C

> <InChI_Code_QSARr>
InChI=1S/C26H38O2/c1-10-11-18(19-14-21(25(4,5)6)23(27)12-16(19)2)20-15-22(26(7,8)9)24(28)13-17(20)3/h12-15,18,27-28H,10-11H2,1-9H3

> <InChI Key_QSARr>
PFANXOISJYKQRP-UHFFFAOYSA-N

> <Salt_Solvent>


> <Salt_Solvent_ID>
0

> <Number of connected components>
1

$$$$
Molecule_1037
  Mrv2316 01072400032D          

 11 11  0  0  0  0            999 V2000
    2.4032    1.0875    0.0000 N   0  0  0  0  0  0  0  0  0  0  0  0
    1.6887    0.6750    0.0000 C   0  0  0  0  0  0  0  0  0  0  0  0
    0.9743    1.0875    0.0000 N   0  0  0  0  0  0  0  0  0  0  0  0
    0.9743    1.9125    0.0000 C   0  0  0  0  0  0  0  0  0  0  0  0
    0.2598    0.6750    0.0000 C   0  0  0  0  0  0  0  0  0  0  0  0
   -0.4547    1.0875    0.0000 O   0  0  0  0  0  0  0  0  0  0  0  0
    0.2598   -0.1500    0.0000 N   0  0  0  0  0  0  0  0  0  0  0  0
   -0.4547   -0.5625    0.0000 C   0  0  0  0  0  0  0  0  0  0  0  0
    0.9743   -0.5625    0.0000 C   0  0  0  0  0  0  0  0  0  0  0  0
    0.9743   -1.3875    0.0000 O   0  0  0  0  0  0  0  0  0  0  0  0
    1.6887   -0.1500    0.0000 C   0  0  0  0  0  0  0  0  0  0  0  0
  1  2  2  0  0  0  0
  3  2  1  0  0  0  0
  3  4  1  0  0  0  0
  5  3  1  0  0  0  0
  5  6  2  0  0  0  0
  7  5  1  0  0  0  0
  7  8  1  0  0  0  0
  9  7  1  0  0  0  0
  9 10  2  0  0  0  0
 11  9  1  0  0  0  0
  2 11  1  0  0  0  0
M  END
> <RowID>
1037

> <Original_SMILES>
CN1C(=O)C=C(N)N(C)C1=O

> <Canonical_QSARr>
CN1C(=O)CC(=N)N(C)C1=O

> <InChI_Code_QSARr>
InChI=1S/C6H9N3O2/c1-8-4(7)3-5(10)9(2)6(8)11/h7H,3H2,1-2H3

> <InChI Key_QSARr>
HBFKTNIVBGBQSS-UHFFFAOYSA-N

> <Salt_Solvent>


> <Salt_Solvent_ID>
0

> <Number of connected components>
1

$$$$
Molecule_1038
  Mrv2316 01072400032D          

 20 19  0  0  0  0            999 V2000
    5.3328   -2.5854    0.0000 O   0  0  0  0  0  0  0  0  0  0  0  0
    4.5226   -2.7413    0.0000 C   0  0  0  0  0  0  0  0  0  0  0  0
    4.2526   -3.5209    0.0000 O   0  0  0  0  0  0  0  0  0  0  0  0
    3.9825   -2.1177    0.0000 C   0  0  0  0  0  0  0  0  0  0  0  0
    4.2526   -1.3381    0.0000 N   0  0  0  0  0  0  0  0  0  0  0  0
    3.7125   -0.7145    0.0000 C   0  0  0  0  0  0  0  0  0  0  0  0
    2.9024   -0.8704    0.0000 C   0  0  0  0  0  0  0  0  0  0  0  0
    2.6323   -1.6499    0.0000 O   0  0  0  0  0  0  0  0  0  0  0  0
    2.3623   -0.2467    0.0000 O   0  0  0  0  0  0  0  0  0  0  0  0
    5.0627   -1.1822    0.0000 C   0  0  0  0  0  0  0  0  0  0  0  0
    5.3328   -0.4027    0.0000 C   0  0  0  0  0  0  0  0  0  0  0  0
    6.1429   -0.2467    0.0000 N   0  0  0  0  0  0  0  0  0  0  0  0
    6.4129    0.5328    0.0000 C   0  0  0  0  0  0  0  0  0  0  0  0
    5.8729    1.1564    0.0000 C   0  0  0  0  0  0  0  0  0  0  0  0
    6.1429    1.9360    0.0000 O   0  0  0  0  0  0  0  0  0  0  0  0
    5.0627    1.0005    0.0000 O   0  0  0  0  0  0  0  0  0  0  0  0
    6.6830   -0.8704    0.0000 C   0  0  0  0  0  0  0  0  0  0  0  0
    7.4931   -0.7145    0.0000 C   0  0  0  0  0  0  0  0  0  0  0  0
    7.7632    0.0651    0.0000 O   0  0  0  0  0  0  0  0  0  0  0  0
    8.0332   -1.3381    0.0000 O   0  0  0  0  0  0  0  0  0  0  0  0
  1  2  1  0  0  0  0
  2  3  2  0  0  0  0
  2  4  1  0  0  0  0
  4  5  1  0  0  0  0
  5  6  1  0  0  0  0
  6  7  1  0  0  0  0
  7  8  1  0  0  0  0
  7  9  2  0  0  0  0
  5 10  1  0  0  0  0
 10 11  1  0  0  0  0
 11 12  1  0  0  0  0
 12 13  1  0  0  0  0
 13 14  1  0  0  0  0
 14 15  1  0  0  0  0
 14 16  2  0  0  0  0
 12 17  1  0  0  0  0
 17 18  1  0  0  0  0
 18 19  1  0  0  0  0
 18 20  2  0  0  0  0
M  END
> <RowID>
1038

> <Original_SMILES>
[Na+].[Fe+3].[O-]C(=O)CN(CC([O-])=O)CCN(CC([O-])=O)CC([O-])=O

> <Canonical_QSARr>
OC(=O)CN(CC(O)=O)CCN(CC(O)=O)CC(O)=O

> <InChI_Code_QSARr>
InChI=1S/C10H16N2O8/c13-7(14)3-11(4-8(15)16)1-2-12(5-9(17)18)6-10(19)20/h1-6H2,(H,13,14)(H,15,16)(H,17,18)(H,19,20)

> <InChI Key_QSARr>
KCXVZYZYPLLWCC-UHFFFAOYSA-N

> <Salt_Solvent>
[Na+].[Fe+3]

> <Salt_Solvent_ID>
185

> <Number of connected components>
3

$$$$
Molecule_1039
  Mrv2316 01072400032D          

 17 18  0  0  0  0            999 V2000
    3.7239   -3.6266    0.0000 C   0  0  0  0  0  0  0  0  0  0  0  0
    2.9034   -3.7129    0.0000 C   0  0  0  0  0  0  0  0  0  0  0  0
    2.4185   -3.0454    0.0000 O   0  0  0  0  0  0  0  0  0  0  0  0
    1.5980   -3.1317    0.0000 C   0  0  0  0  0  0  0  0  0  0  0  0
    1.2624   -3.8853    0.0000 O   0  0  0  0  0  0  0  0  0  0  0  0
    1.1131   -2.4642    0.0000 C   0  0  0  0  0  0  0  0  0  0  0  0
    1.3680   -1.6796    0.0000 C   0  0  0  0  0  0  0  0  0  0  0  0
    0.7006   -1.1947    0.0000 C   0  0  0  0  0  0  0  0  0  0  0  0
    0.7006   -0.3697    0.0000 O   0  0  0  0  0  0  0  0  0  0  0  0
    0.0331   -1.6796    0.0000 N   0  0  0  0  0  0  0  0  0  0  0  0
   -0.7515   -1.4247    0.0000 C   0  0  0  0  0  0  0  0  0  0  0  0
   -0.9230   -0.6177    0.0000 C   0  0  0  0  0  0  0  0  0  0  0  0
   -1.7077   -0.3628    0.0000 C   0  0  0  0  0  0  0  0  0  0  0  0
   -2.3207   -0.9148    0.0000 C   0  0  0  0  0  0  0  0  0  0  0  0
   -2.1492   -1.7218    0.0000 C   0  0  0  0  0  0  0  0  0  0  0  0
   -1.3646   -1.9767    0.0000 C   0  0  0  0  0  0  0  0  0  0  0  0
    0.2881   -2.4642    0.0000 N   0  0  0  0  0  0  0  0  0  0  0  0
  1  2  1  0  0  0  0
  2  3  1  0  0  0  0
  3  4  1  0  0  0  0
  4  5  2  0  0  0  0
  4  6  1  0  0  0  0
  7  6  1  0  0  0  0
  8  7  1  0  0  0  0
  8  9  2  0  0  0  0
 10  8  1  0  0  0  0
 10 11  1  0  0  0  0
 12 11  1  0  0  0  0
 13 12  2  0  0  0  0
 14 13  1  0  0  0  0
 15 14  2  0  0  0  0
 16 15  1  0  0  0  0
 11 16  2  0  0  0  0
 17 10  1  0  0  0  0
  6 17  2  0  0  0  0
M  END
> <RowID>
1039

> <Original_SMILES>
CCOC(=O)C1CC(=O)N(N=1)C1C=CC=CC=1

> <Canonical_QSARr>
CCOC(=O)C1CC(=O)N(N=1)C1C=CC=CC=1

> <InChI_Code_QSARr>
InChI=1S/C12H12N2O3/c1-2-17-12(16)10-8-11(15)14(13-10)9-6-4-3-5-7-9/h3-7H,2,8H2,1H3

> <InChI Key_QSARr>
WBFXQKNQVZMOSQ-UHFFFAOYSA-N

> <Salt_Solvent>


> <Salt_Solvent_ID>
0

> <Number of connected components>
1

$$$$
Molecule_1040
  Mrv2316 01072400032D          

 52 57  0  0  0  0            999 V2000
    7.6743   -6.4696    0.0000 C   0  0  0  0  0  0  0  0  0  0  0  0
    6.8538   -6.5558    0.0000 C   0  0  0  0  0  0  0  0  0  0  0  0
    6.3689   -5.8884    0.0000 O   0  0  0  0  0  0  0  0  0  0  0  0
    5.5484   -5.9746    0.0000 C   0  0  0  0  0  0  0  0  0  0  0  0
    5.2129   -6.7283    0.0000 O   0  0  0  0  0  0  0  0  0  0  0  0
    5.0635   -5.3072    0.0000 C   0  0  0  0  0  0  0  0  0  0  0  0
    5.3185   -4.5226    0.0000 N   0  0  0  0  0  0  0  0  0  0  0  0
    4.6510   -4.0376    0.0000 N   0  0  0  0  0  0  0  0  0  0  0  0
    4.6510   -3.2126    0.0000 C   0  0  0  0  0  0  0  0  0  0  0  0
    5.3655   -2.8001    0.0000 C   0  0  0  0  0  0  0  0  0  0  0  0
    5.3655   -1.9751    0.0000 C   0  0  0  0  0  0  0  0  0  0  0  0
    4.6510   -1.5626    0.0000 C   0  0  0  0  0  0  0  0  0  0  0  0
    3.9365   -1.9751    0.0000 C   0  0  0  0  0  0  0  0  0  0  0  0
    3.9365   -2.8001    0.0000 C   0  0  0  0  0  0  0  0  0  0  0  0
    3.9836   -4.5226    0.0000 C   0  0  0  0  0  0  0  0  0  0  0  0
    3.1990   -4.2676    0.0000 O   0  0  0  0  0  0  0  0  0  0  0  0
    4.2385   -5.3072    0.0000 C   0  0  0  0  0  0  0  0  0  0  0  0
    3.7536   -5.9746    0.0000 N   0  0  0  0  0  0  0  0  0  0  0  0
    2.9331   -5.8884    0.0000 N   0  0  0  0  0  0  0  0  0  0  0  0
    2.4482   -6.5558    0.0000 C   0  0  0  0  0  0  0  0  0  0  0  0
    1.6277   -6.4696    0.0000 C   0  0  0  0  0  0  0  0  0  0  0  0
    1.1428   -7.1370    0.0000 C   0  0  0  0  0  0  0  0  0  0  0  0
    1.4783   -7.8907    0.0000 C   0  0  0  0  0  0  0  0  0  0  0  0
    0.9934   -8.5582    0.0000 C   0  0  0  0  0  0  0  0  0  0  0  0
    0.1729   -8.4719    0.0000 C   0  0  0  0  0  0  0  0  0  0  0  0
   -0.3120   -9.1394    0.0000 C   0  0  0  0  0  0  0  0  0  0  0  0
   -1.1325   -9.0531    0.0000 Cl  0  0  0  0  0  0  0  0  0  0  0  0
    0.0236   -9.8930    0.0000 C   0  0  0  0  0  0  0  0  0  0  0  0
   -0.4613  -10.5605    0.0000 N   0  0  0  0  0  0  0  0  0  0  0  0
   -0.1258  -11.3141    0.0000 N   0  0  0  0  0  0  0  0  0  0  0  0
   -0.6107  -11.9816    0.0000 C   0  0  0  0  0  0  0  0  0  0  0  0
   -1.4357  -11.9816    0.0000 C   0  0  0  0  0  0  0  0  0  0  0  0
   -1.9206  -11.3141    0.0000 C   0  0  0  0  0  0  0  0  0  0  0  0
   -2.7411  -11.4004    0.0000 O   0  0  0  0  0  0  0  0  0  0  0  0
   -1.5851  -10.5605    0.0000 O   0  0  0  0  0  0  0  0  0  0  0  0
   -2.0700   -9.8930    0.0000 C   0  0  0  0  0  0  0  0  0  0  0  0
   -1.7344   -9.1394    0.0000 C   0  0  0  0  0  0  0  0  0  0  0  0
   -1.6906  -12.7662    0.0000 N   0  0  0  0  0  0  0  0  0  0  0  0
   -1.0232  -13.2511    0.0000 N   0  0  0  0  0  0  0  0  0  0  0  0
   -1.0232  -14.0761    0.0000 C   0  0  0  0  0  0  0  0  0  0  0  0
   -1.7377  -14.4886    0.0000 C   0  0  0  0  0  0  0  0  0  0  0  0
   -1.7377  -15.3136    0.0000 C   0  0  0  0  0  0  0  0  0  0  0  0
   -1.0232  -15.7261    0.0000 C   0  0  0  0  0  0  0  0  0  0  0  0
   -0.3087  -15.3136    0.0000 C   0  0  0  0  0  0  0  0  0  0  0  0
   -0.3087  -14.4886    0.0000 C   0  0  0  0  0  0  0  0  0  0  0  0
   -0.3558  -12.7662    0.0000 C   0  0  0  0  0  0  0  0  0  0  0  0
    0.4289  -13.0211    0.0000 O   0  0  0  0  0  0  0  0  0  0  0  0
    0.8441   -9.9793    0.0000 C   0  0  0  0  0  0  0  0  0  0  0  0
    1.3290   -9.3118    0.0000 C   0  0  0  0  0  0  0  0  0  0  0  0
    2.2988   -7.9769    0.0000 C   0  0  0  0  0  0  0  0  0  0  0  0
    2.7837   -7.3095    0.0000 C   0  0  0  0  0  0  0  0  0  0  0  0
    3.6042   -7.3957    0.0000 Cl  0  0  0  0  0  0  0  0  0  0  0  0
  1  2  1  0  0  0  0
  2  3  1  0  0  0  0
  3  4  1  0  0  0  0
  4  5  2  0  0  0  0
  4  6  1  0  0  0  0
  7  6  2  0  0  0  0
  8  7  1  0  0  0  0
  8  9  1  0  0  0  0
 10  9  1  0  0  0  0
 11 10  2  0  0  0  0
 12 11  1  0  0  0  0
 13 12  2  0  0  0  0
 14 13  1  0  0  0  0
  9 14  2  0  0  0  0
 15  8  1  0  0  0  0
 15 16  2  0  0  0  0
 17 15  1  0  0  0  0
  6 17  1  0  0  0  0
 18 17  1  4  0  0  0
 18 19  2  0  0  0  0
 19 20  1  0  0  0  0
 21 20  1  0  0  0  0
 22 21  2  0  0  0  0
 23 22  1  0  0  0  0
 23 24  1  0  0  0  0
 25 24  1  0  0  0  0
 26 25  2  0  0  0  0
 26 27  1  0  0  0  0
 28 26  1  0  0  0  0
 29 28  1  4  0  0  0
 29 30  2  0  0  0  0
 30 31  1  0  0  0  0
 32 31  1  0  0  0  0
 32 33  1  0  0  0  0
 33 34  2  0  0  0  0
 33 35  1  0  0  0  0
 35 36  1  0  0  0  0
 36 37  1  0  0  0  0
 38 32  2  0  0  0  0
 39 38  1  0  0  0  0
 39 40  1  0  0  0  0
 41 40  1  0  0  0  0
 42 41  2  0  0  0  0
 43 42  1  0  0  0  0
 44 43  2  0  0  0  0
 45 44  1  0  0  0  0
 40 45  2  0  0  0  0
 46 39  1  0  0  0  0
 31 46  1  0  0  0  0
 46 47  2  0  0  0  0
 48 28  2  0  0  0  0
 49 48  1  0  0  0  0
 24 49  2  0  0  0  0
 50 23  2  0  0  0  0
 51 50  1  0  0  0  0
 20 51  2  0  0  0  0
 51 52  1  0  0  0  0
M  END
> <RowID>
1040

> <Original_SMILES>
CCOC(=O)C1=NN(C2C=CC=CC=2)C(=O)C1N=NC1C=CC(=CC=1Cl)C1C=C(Cl)C(=CC=1)N=NC1C(=NN(C2C=CC=CC=2)C1=O)C(=O)OCC

> <Canonical_QSARr>
CCOC(=O)C1=NN(C2C=CC=CC=2)C(=O)C1N=NC1C=CC(=CC=1Cl)C1C=C(Cl)C(=CC=1)N=NC1C(=NN(C2C=CC=CC=2)C1=O)C(=O)OCC

> <InChI_Code_QSARr>
InChI=1S/C36H28Cl2N8O6/c1-3-51-35(49)31-29(33(47)45(43-31)23-11-7-5-8-12-23)41-39-27-17-15-21(19-25(27)37)22-16-18-28(26(38)20-22)40-42-30-32(36(50)52-4-2)44-46(34(30)48)24-13-9-6-10-14-24/h5-20,29-30H,3-4H2,1-2H3

> <InChI Key_QSARr>
PLYDMIIYRWUYBP-UHFFFAOYSA-N

> <Salt_Solvent>


> <Salt_Solvent_ID>
0

> <Number of connected components>
1

$$$$
Molecule_1041
  Mrv2316 01072400032D          

 16 16  0  0  0  0            999 V2000
    2.9918   -2.2430    0.0000 C   0  0  0  0  0  0  0  0  0  0  0  0
    2.9918   -1.4180    0.0000 C   0  0  0  0  0  0  0  0  0  0  0  0
    2.2774   -1.0055    0.0000 O   0  0  0  0  0  0  0  0  0  0  0  0
    2.2774   -0.1805    0.0000 C   0  0  0  0  0  0  0  0  0  0  0  0
    2.9918    0.2320    0.0000 O   0  0  0  0  0  0  0  0  0  0  0  0
    1.5629    0.2320    0.0000 C   0  0  0  0  0  0  0  0  0  0  0  0
    1.5629    1.0570    0.0000 C   0  0  0  0  0  0  0  0  0  0  0  0
    0.8484    1.4695    0.0000 C   0  0  0  0  0  0  0  0  0  0  0  0
    0.8484    2.2945    0.0000 C   0  0  0  0  0  0  0  0  0  0  0  0
    1.5629    2.7070    0.0000 O   0  0  0  0  0  0  0  0  0  0  0  0
    0.1340    2.7070    0.0000 O   0  0  0  0  0  0  0  0  0  0  0  0
    0.1340    3.5320    0.0000 C   0  0  0  0  0  0  0  0  0  0  0  0
   -0.5805    3.9445    0.0000 C   0  0  0  0  0  0  0  0  0  0  0  0
    0.1340    1.0570    0.0000 C   0  0  0  0  0  0  0  0  0  0  0  0
    0.1340    0.2320    0.0000 C   0  0  0  0  0  0  0  0  0  0  0  0
    0.8484   -0.1805    0.0000 N   0  0  0  0  0  0  0  0  0  0  0  0
  1  2  1  0  0  0  0
  2  3  1  0  0  0  0
  3  4  1  0  0  0  0
  4  5  2  0  0  0  0
  4  6  1  0  0  0  0
  7  6  1  0  0  0  0
  8  7  2  0  0  0  0
  8  9  1  0  0  0  0
  9 10  2  0  0  0  0
  9 11  1  0  0  0  0
 11 12  1  0  0  0  0
 12 13  1  0  0  0  0
 14  8  1  0  0  0  0
 15 14  2  0  0  0  0
 16 15  1  0  0  0  0
  6 16  2  0  0  0  0
M  END
> <RowID>
1041

> <Original_SMILES>
CCOC(=O)C1C=C(C=CN=1)C(=O)OCC

> <Canonical_QSARr>
CCOC(=O)C1C=C(C=CN=1)C(=O)OCC

> <InChI_Code_QSARr>
InChI=1S/C11H13NO4/c1-3-15-10(13)8-5-6-12-9(7-8)11(14)16-4-2/h5-7H,3-4H2,1-2H3

> <InChI Key_QSARr>
MUUDQLHCIAOWPR-UHFFFAOYSA-N

> <Salt_Solvent>


> <Salt_Solvent_ID>
0

> <Number of connected components>
1

$$$$
Molecule_1042
  Mrv2316 01072400032D          

 28 29  0  0  0  0            999 V2000
    0.1585   -6.0843    0.0000 O   0  0  0  0  0  0  0  0  0  0  0  0
    0.0356   -6.9000    0.0000 C   0  0  0  0  0  0  0  0  0  0  0  0
   -0.7528   -7.1432    0.0000 C   0  0  0  0  0  0  0  0  0  0  0  0
   -1.0542   -7.9112    0.0000 C   0  0  0  0  0  0  0  0  0  0  0  0
   -0.6417   -8.6257    0.0000 C   0  0  0  0  0  0  0  0  0  0  0  0
    0.1741   -8.7486    0.0000 C   0  0  0  0  0  0  0  0  0  0  0  0
    0.7789   -8.1875    0.0000 C   0  0  0  0  0  0  0  0  0  0  0  0
    0.7172   -7.3648    0.0000 N   0  0  0  0  0  0  0  0  0  0  0  0
    1.4317   -6.9523    0.0000 C   0  0  0  0  0  0  0  0  0  0  0  0
    1.4317   -6.1273    0.0000 O   0  0  0  0  0  0  0  0  0  0  0  0
    2.1462   -7.3648    0.0000 N   0  0  0  0  0  0  0  0  0  0  0  0
    2.8606   -6.9523    0.0000 C   0  0  0  0  0  0  0  0  0  0  0  0
    3.5751   -7.3648    0.0000 C   0  0  0  0  0  0  0  0  0  0  0  0
    4.2896   -6.9523    0.0000 C   0  0  0  0  0  0  0  0  0  0  0  0
    5.0041   -7.3648    0.0000 C   0  0  0  0  0  0  0  0  0  0  0  0
    5.7185   -6.9523    0.0000 C   0  0  0  0  0  0  0  0  0  0  0  0
    6.4330   -7.3648    0.0000 C   0  0  0  0  0  0  0  0  0  0  0  0
    7.1475   -6.9523    0.0000 N   0  0  0  0  0  0  0  0  0  0  0  0
    7.8619   -7.3648    0.0000 C   0  0  0  0  0  0  0  0  0  0  0  0
    7.8619   -8.1898    0.0000 O   0  0  0  0  0  0  0  0  0  0  0  0
    8.5764   -6.9523    0.0000 N   0  0  0  0  0  0  0  0  0  0  0  0
    9.2581   -7.4170    0.0000 C   0  0  0  0  0  0  0  0  0  0  0  0
   10.0464   -7.1738    0.0000 C   0  0  0  0  0  0  0  0  0  0  0  0
   10.3478   -6.4059    0.0000 C   0  0  0  0  0  0  0  0  0  0  0  0
    9.9353   -5.6914    0.0000 C   0  0  0  0  0  0  0  0  0  0  0  0
    9.1195   -5.5684    0.0000 C   0  0  0  0  0  0  0  0  0  0  0  0
    8.5148   -6.1296    0.0000 C   0  0  0  0  0  0  0  0  0  0  0  0
    7.7468   -5.8282    0.0000 O   0  0  0  0  0  0  0  0  0  0  0  0
  1  2  2  0  0  0  0
  3  2  1  0  0  0  0
  4  3  1  0  0  0  0
  5  4  1  0  0  0  0
  6  5  1  0  0  0  0
  7  6  1  0  0  0  0
  8  7  1  0  0  0  0
  2  8  1  0  0  0  0
  8  9  1  0  0  0  0
  9 10  2  0  0  0  0
  9 11  1  0  0  0  0
 11 12  1  0  0  0  0
 12 13  1  0  0  0  0
 13 14  1  0  0  0  0
 14 15  1  0  0  0  0
 15 16  1  0  0  0  0
 16 17  1  0  0  0  0
 17 18  1  0  0  0  0
 18 19  1  0  0  0  0
 19 20  2  0  0  0  0
 19 21  1  0  0  0  0
 22 21  1  0  0  0  0
 23 22  1  0  0  0  0
 24 23  1  0  0  0  0
 25 24  1  0  0  0  0
 26 25  1  0  0  0  0
 27 26  1  0  0  0  0
 21 27  1  0  0  0  0
 27 28  2  0  0  0  0
M  END
> <RowID>
1042

> <Original_SMILES>
O=C1CCCCCN1C(=O)NCCCCCCNC(=O)N1CCCCCC1=O

> <Canonical_QSARr>
O=C1CCCCCN1C(=O)NCCCCCCNC(=O)N1CCCCCC1=O

> <InChI_Code_QSARr>
InChI=1S/C20H34N4O4/c25-17-11-5-3-9-15-23(17)19(27)21-13-7-1-2-8-14-22-20(28)24-16-10-4-6-12-18(24)26/h1-16H2,(H,21,27)(H,22,28)

> <InChI Key_QSARr>
YOVRNJUIHVNXCB-UHFFFAOYSA-N

> <Salt_Solvent>


> <Salt_Solvent_ID>
0

> <Number of connected components>
1

$$$$
Molecule_1043
  Mrv2316 01072400032D          

 26 28  0  0  0  0            999 V2000
   -0.5973   -7.8176    0.0000 N   0  0  0  0  0  0  0  0  0  0  0  0
   -0.5973   -6.9926    0.0000 C   0  0  0  0  0  0  0  0  0  0  0  0
    0.1172   -6.5801    0.0000 C   0  0  0  0  0  0  0  0  0  0  0  0
    0.1172   -5.7551    0.0000 C   0  0  0  0  0  0  0  0  0  0  0  0
   -0.5973   -5.3426    0.0000 C   0  0  0  0  0  0  0  0  0  0  0  0
   -0.5973   -4.5176    0.0000 O   0  0  0  0  0  0  0  0  0  0  0  0
    0.1172   -4.1051    0.0000 P   0  0  0  0  0  0  0  0  0  0  0  0
    0.5297   -4.8196    0.0000 S   0  0  0  0  0  0  0  0  0  0  0  0
    0.8317   -3.6926    0.0000 O   0  0  0  0  0  0  0  0  0  0  0  0
    1.5461   -4.1051    0.0000 C   0  0  0  0  0  0  0  0  0  0  0  0
    1.5461   -4.9301    0.0000 C   0  0  0  0  0  0  0  0  0  0  0  0
    2.2606   -5.3426    0.0000 C   0  0  0  0  0  0  0  0  0  0  0  0
    2.9751   -4.9301    0.0000 C   0  0  0  0  0  0  0  0  0  0  0  0
    3.6895   -5.3426    0.0000 N   0  0  0  0  0  0  0  0  0  0  0  0
    2.9751   -4.1051    0.0000 C   0  0  0  0  0  0  0  0  0  0  0  0
    2.2606   -3.6926    0.0000 C   0  0  0  0  0  0  0  0  0  0  0  0
   -0.2953   -3.3907    0.0000 O   0  0  0  0  0  0  0  0  0  0  0  0
    0.1172   -2.6762    0.0000 C   0  0  0  0  0  0  0  0  0  0  0  0
    0.9422   -2.6762    0.0000 C   0  0  0  0  0  0  0  0  0  0  0  0
    1.3547   -1.9617    0.0000 C   0  0  0  0  0  0  0  0  0  0  0  0
    0.9422   -1.2473    0.0000 C   0  0  0  0  0  0  0  0  0  0  0  0
    1.3547   -0.5328    0.0000 N   0  0  0  0  0  0  0  0  0  0  0  0
    0.1172   -1.2473    0.0000 C   0  0  0  0  0  0  0  0  0  0  0  0
   -0.2953   -1.9617    0.0000 C   0  0  0  0  0  0  0  0  0  0  0  0
   -1.3117   -5.7551    0.0000 C   0  0  0  0  0  0  0  0  0  0  0  0
   -1.3117   -6.5801    0.0000 C   0  0  0  0  0  0  0  0  0  0  0  0
  1  2  1  0  0  0  0
  3  2  1  0  0  0  0
  4  3  2  0  0  0  0
  5  4  1  0  0  0  0
  5  6  1  0  0  0  0
  6  7  1  0  0  0  0
  7  8  2  0  0  0  0
  7  9  1  0  0  0  0
  9 10  1  0  0  0  0
 11 10  1  0  0  0  0
 12 11  2  0  0  0  0
 13 12  1  0  0  0  0
 13 14  1  0  0  0  0
 15 13  2  0  0  0  0
 16 15  1  0  0  0  0
 10 16  2  0  0  0  0
  7 17  1  0  0  0  0
 17 18  1  0  0  0  0
 19 18  1  0  0  0  0
 20 19  2  0  0  0  0
 21 20  1  0  0  0  0
 21 22  1  0  0  0  0
 23 21  2  0  0  0  0
 24 23  1  0  0  0  0
 18 24  2  0  0  0  0
 25  5  2  0  0  0  0
 26 25  1  0  0  0  0
  2 26  2  0  0  0  0
M  END
> <RowID>
1043

> <Original_SMILES>
NC1C=CC(=CC=1)OP(=S)(OC1C=CC(N)=CC=1)OC1C=CC(N)=CC=1

> <Canonical_QSARr>
NC1C=CC(=CC=1)OP(=S)(OC1C=CC(N)=CC=1)OC1C=CC(N)=CC=1

> <InChI_Code_QSARr>
InChI=1S/C18H18N3O3PS/c19-13-1-7-16(8-2-13)22-25(26,23-17-9-3-14(20)4-10-17)24-18-11-5-15(21)6-12-18/h1-12H,19-21H2

> <InChI Key_QSARr>
MBUAAMOJATXYKR-UHFFFAOYSA-N

> <Salt_Solvent>


> <Salt_Solvent_ID>
0

> <Number of connected components>
1

$$$$
Molecule_1044
  Mrv2316 01072400032D          

 37 40  0  0  0  0            999 V2000
    4.2868  -10.1007    0.0000 C   0  0  0  0  0  0  0  0  0  0  0  0
    4.2868   -9.2757    0.0000 C   0  0  0  0  0  0  0  0  0  0  0  0
    5.0013   -8.8632    0.0000 C   0  0  0  0  0  0  0  0  0  0  0  0
    5.0013   -8.0382    0.0000 C   0  0  0  0  0  0  0  0  0  0  0  0
    4.2868   -7.6257    0.0000 C   0  0  0  0  0  0  0  0  0  0  0  0
    4.2868   -6.8007    0.0000 N   0  0  0  0  0  0  0  0  0  0  0  0
    5.0013   -6.3882    0.0000 C   0  0  0  0  0  0  0  0  0  0  0  0
    5.7158   -6.8007    0.0000 N   0  0  0  0  0  0  0  0  0  0  0  0
    6.4302   -6.3882    0.0000 C   0  0  0  0  0  0  0  0  0  0  0  0
    7.1447   -6.8007    0.0000 N   0  0  0  0  0  0  0  0  0  0  0  0
    7.8592   -6.3882    0.0000 C   0  0  0  0  0  0  0  0  0  0  0  0
    8.5737   -6.8007    0.0000 C   0  0  0  0  0  0  0  0  0  0  0  0
    9.2881   -6.3882    0.0000 C   0  0  0  0  0  0  0  0  0  0  0  0
    9.2881   -5.5632    0.0000 C   0  0  0  0  0  0  0  0  0  0  0  0
   10.0026   -5.1507    0.0000 C   0  0  0  0  0  0  0  0  0  0  0  0
    8.5737   -5.1507    0.0000 C   0  0  0  0  0  0  0  0  0  0  0  0
    7.8592   -5.5632    0.0000 C   0  0  0  0  0  0  0  0  0  0  0  0
    6.4302   -5.5632    0.0000 C   0  0  0  0  0  0  0  0  0  0  0  0
    7.1447   -5.1507    0.0000 C   0  0  0  0  0  0  0  0  0  0  0  0
    7.8592   -4.7382    0.0000 N   0  0  0  0  0  0  0  0  0  0  0  0
    5.7158   -5.1507    0.0000 C   0  0  0  0  0  0  0  0  0  0  0  0
    5.7158   -4.3257    0.0000 C   0  0  0  0  0  0  0  0  0  0  0  0
    5.0013   -5.5632    0.0000 C   0  0  0  0  0  0  0  0  0  0  0  0
    4.2868   -5.1507    0.0000 N   0  0  0  0  0  0  0  0  0  0  0  0
    4.2868   -4.3257    0.0000 N   0  0  0  0  0  0  0  0  0  0  0  0
    3.5724   -3.9132    0.0000 C   0  0  0  0  0  0  0  0  0  0  0  0
    3.5724   -3.0882    0.0000 C   0  0  0  0  0  0  0  0  0  0  0  0
    2.8579   -2.6757    0.0000 C   0  0  0  0  0  0  0  0  0  0  0  0
    2.1434   -3.0882    0.0000 C   0  0  0  0  0  0  0  0  0  0  0  0
    2.1434   -3.9132    0.0000 C   0  0  0  0  0  0  0  0  0  0  0  0
    2.8579   -4.3257    0.0000 C   0  0  0  0  0  0  0  0  0  0  0  0
    2.8579   -5.1507    0.0000 C   0  0  0  0  0  0  0  0  0  0  0  0
    2.8579   -5.9757    0.0000 F   0  0  0  0  0  0  0  0  0  0  0  0
    3.6829   -5.1507    0.0000 F   0  0  0  0  0  0  0  0  0  0  0  0
    2.0329   -5.1507    0.0000 F   0  0  0  0  0  0  0  0  0  0  0  0
    3.5724   -8.0382    0.0000 C   0  0  0  0  0  0  0  0  0  0  0  0
    3.5724   -8.8632    0.0000 C   0  0  0  0  0  0  0  0  0  0  0  0
  1  2  1  0  0  0  0
  3  2  1  0  0  0  0
  4  3  2  0  0  0  0
  5  4  1  0  0  0  0
  5  6  1  0  0  0  0
  6  7  1  0  0  0  0
  8  7  2  0  0  0  0
  9  8  1  0  0  0  0
  9 10  1  0  0  0  0
 10 11  1  0  0  0  0
 12 11  1  0  0  0  0
 13 12  2  0  0  0  0
 14 13  1  0  0  0  0
 14 15  1  0  0  0  0
 16 14  2  0  0  0  0
 17 16  1  0  0  0  0
 11 17  2  0  0  0  0
 18  9  2  0  0  0  0
 18 19  1  0  0  0  0
 19 20  3  0  0  0  0
 21 18  1  0  0  0  0
 21 22  1  0  0  0  0
 23 21  2  0  0  0  0
  7 23  1  0  0  0  0
 24 23  1  4  0  0  0
 24 25  2  0  0  0  0
 25 26  1  0  0  0  0
 27 26  2  0  0  0  0
 28 27  1  0  0  0  0
 29 28  2  0  0  0  0
 30 29  1  0  0  0  0
 31 30  2  0  0  0  0
 26 31  1  0  0  0  0
 31 32  1  0  0  0  0
 32 33  1  0  0  0  0
 32 34  1  0  0  0  0
 32 35  1  0  0  0  0
 36  5  2  0  0  0  0
 37 36  1  0  0  0  0
  2 37  2  0  0  0  0
M  END
> <RowID>
1044

> <Original_SMILES>
CC1C=CC(=CC=1)NC1=NC(NC2C=CC(C)=CC=2)=C(C#N)C(C)=C1N=NC1=CC=CC=C1C(F)(F)F

> <Canonical_QSARr>
CC1C=CC(=CC=1)NC1=NC(NC2C=CC(C)=CC=2)=C(C#N)C(C)=C1N=NC1=CC=CC=C1C(F)(F)F

> <InChI_Code_QSARr>
InChI=1S/C28H23F3N6/c1-17-8-12-20(13-9-17)33-26-22(16-32)19(3)25(27(35-26)34-21-14-10-18(2)11-15-21)37-36-24-7-5-4-6-23(24)28(29,30)31/h4-15H,1-3H3,(H2,33,34,35)

> <InChI Key_QSARr>
FOICTPKVVFHDJU-UHFFFAOYSA-N

> <Salt_Solvent>


> <Salt_Solvent_ID>
0

> <Number of connected components>
1

$$$$
Molecule_1045
  Mrv2316 01072400032D          

 13 14  0  0  0  0            999 V2000
    0.0000   -1.6500    0.0000 O   0  0  0  0  0  0  0  0  0  0  0  0
    0.7145   -1.2375    0.0000 C   0  0  0  0  0  0  0  0  0  0  0  0
    0.7145   -0.4125    0.0000 C   0  0  0  0  0  0  0  0  0  0  0  0
    1.4289    0.0000    0.0000 C   0  0  0  0  0  0  0  0  0  0  0  0
    2.1434   -0.4125    0.0000 C   0  0  0  0  0  0  0  0  0  0  0  0
    2.8579    0.0000    0.0000 C   0  0  0  0  0  0  0  0  0  0  0  0
    3.5724   -0.4125    0.0000 C   0  0  0  0  0  0  0  0  0  0  0  0
    3.5724   -1.2375    0.0000 C   0  0  0  0  0  0  0  0  0  0  0  0
    2.8579   -1.6500    0.0000 C   0  0  0  0  0  0  0  0  0  0  0  0
    2.1434   -1.2375    0.0000 C   0  0  0  0  0  0  0  0  0  0  0  0
    1.4289   -1.6500    0.0000 C   0  0  0  0  0  0  0  0  0  0  0  0
    1.4289   -2.4750    0.0000 C   0  0  0  0  0  0  0  0  0  0  0  0
    0.7145   -2.8875    0.0000 O   0  0  0  0  0  0  0  0  0  0  0  0
  1  2  1  0  0  0  0
  3  2  2  0  0  0  0
  4  3  1  0  0  0  0
  5  4  2  0  0  0  0
  5  6  1  0  0  0  0
  6  7  2  0  0  0  0
  7  8  1  0  0  0  0
  8  9  2  0  0  0  0
  9 10  1  0  0  0  0
 10  5  1  0  0  0  0
 11 10  2  0  0  0  0
  2 11  1  0  0  0  0
 11 12  1  0  0  0  0
 12 13  2  0  0  0  0
M  END
> <RowID>
1045

> <Original_SMILES>
OC1=CC=C2C=CC=CC2=C1C=O

> <Canonical_QSARr>
OC1=CC=C2C=CC=CC2=C1C=O

> <InChI_Code_QSARr>
InChI=1S/C11H8O2/c12-7-10-9-4-2-1-3-8(9)5-6-11(10)13/h1-7,13H

> <InChI Key_QSARr>
NTCCNERMXRIPTR-UHFFFAOYSA-N

> <Salt_Solvent>


> <Salt_Solvent_ID>
0

> <Number of connected components>
1

$$$$
Molecule_1046
  Mrv2316 01072400032D          

 13 15  0  0  0  0            999 V2000
    5.5274    2.0306    0.0000 O   0  0  0  0  0  0  0  0  0  0  0  0
    4.8130    1.6181    0.0000 C   0  0  0  0  0  0  0  0  0  0  0  0
    4.0985    2.0306    0.0000 C   0  0  0  0  0  0  0  0  0  0  0  0
    3.3840    1.6181    0.0000 C   0  0  0  0  0  0  0  0  0  0  0  0
    3.3840    0.7931    0.0000 C   0  0  0  0  0  0  0  0  0  0  0  0
    2.6695    0.3806    0.0000 C   0  0  0  0  0  0  0  0  0  0  0  0
    2.4633    1.2056    0.0000 C   0  0  0  0  0  0  0  0  0  0  0  0
    2.6695    2.0306    0.0000 C   0  0  0  0  0  0  0  0  0  0  0  0
    1.9551    1.6181    0.0000 C   0  0  0  0  0  0  0  0  0  0  0  0
    1.1704    1.8730    0.0000 C   0  0  0  0  0  0  0  0  0  0  0  0
    0.6855    1.2056    0.0000 C   0  0  0  0  0  0  0  0  0  0  0  0
    1.1704    0.5382    0.0000 C   0  0  0  0  0  0  0  0  0  0  0  0
    1.9551    0.7931    0.0000 C   0  0  0  0  0  0  0  0  0  0  0  0
  1  2  2  0  0  0  0
  2  3  1  0  0  0  0
  3  4  1  0  0  0  0
  5  4  1  0  0  0  0
  6  5  1  0  0  0  0
  6  7  1  0  0  0  0
  7  8  1  0  0  0  0
  4  8  1  0  0  0  0
  8  9  1  0  0  0  0
 10  9  1  0  0  0  0
 11 10  1  0  0  0  0
 12 11  1  0  0  0  0
 13 12  1  0  0  0  0
  9 13  1  0  0  0  0
 13  6  1  0  0  0  0
M  END
> <RowID>
1046

> <Original_SMILES>
O=CCC1CC2CC1C1CCCC21

> <Canonical_QSARr>
O=CCC1CC2CC1C1CCCC21

> <InChI_Code_QSARr>
InChI=1S/C12H18O/c13-5-4-8-6-9-7-12(8)11-3-1-2-10(9)11/h5,8-12H,1-4,6-7H2

> <InChI Key_QSARr>
BFTAXJRKNXWMMX-UHFFFAOYSA-N

> <Salt_Solvent>


> <Salt_Solvent_ID>
0

> <Number of connected components>
1

$$$$
Molecule_1048
  Mrv2316 01072400032D          

 10 10  0  0  0  0            999 V2000
   -0.0000    0.8250    0.0000 N   0  0  0  0  0  0  0  0  0  0  0  0
   -0.0000   -0.0000    0.0000 C   0  0  0  0  0  0  0  0  0  0  0  0
   -0.7145   -0.4125    0.0000 O   0  0  0  0  0  0  0  0  0  0  0  0
    0.7145   -0.4125    0.0000 C   0  0  0  0  0  0  0  0  0  0  0  0
    1.4289   -0.0000    0.0000 C   0  0  0  0  0  0  0  0  0  0  0  0
    2.1434   -0.4125    0.0000 C   0  0  0  0  0  0  0  0  0  0  0  0
    1.4289    0.8250    0.0000 O   0  0  0  0  0  0  0  0  0  0  0  0
    0.7145    1.2375    0.0000 S   0  0  0  0  0  0  0  0  0  0  0  0
    1.1018    1.9659    0.0000 O   0  0  0  0  0  0  0  0  0  0  0  0
    0.3272    1.9659    0.0000 O   0  0  0  0  0  0  0  0  0  0  0  0
  2  1  1  0  0  0  0
  2  3  2  0  0  0  0
  4  2  1  0  0  0  0
  5  4  2  0  0  0  0
  5  6  1  0  0  0  0
  7  5  1  0  0  0  0
  8  7  1  0  0  0  0
  1  8  1  0  0  0  0
  8  9  2  0  0  0  0
  8 10  2  0  0  0  0
M  END
> <RowID>
1048

> <Original_SMILES>
[K+].CC1=CC(=O)[N-]S(=O)(=O)O1

> <Canonical_QSARr>
CC1=CC(=O)NS(=O)(=O)O1

> <InChI_Code_QSARr>
InChI=1S/C4H5NO4S/c1-3-2-4(6)5-10(7,8)9-3/h2H,1H3,(H,5,6)

> <InChI Key_QSARr>
YGCFIWIQZPHFLU-UHFFFAOYSA-N

> <Salt_Solvent>
[K+]

> <Salt_Solvent_ID>
190

> <Number of connected components>
2

$$$$
Molecule_1049
  Mrv2316 01072400032D          

 17 16  0  0  0  0            999 V2000
    9.0454    2.7474    0.0000 C   0  0  0  0  0  0  0  0  0  0  0  0
    9.0454    3.5724    0.0000 C   0  0  0  0  0  0  0  0  0  0  0  0
    8.3309    3.9849    0.0000 C   0  0  0  0  0  0  0  0  0  0  0  0
    7.6164    3.5724    0.0000 O   0  0  0  0  0  0  0  0  0  0  0  0
    6.9020    3.9849    0.0000 C   0  0  0  0  0  0  0  0  0  0  0  0
    6.9020    4.8099    0.0000 O   0  0  0  0  0  0  0  0  0  0  0  0
    6.1875    3.5724    0.0000 C   0  0  0  0  0  0  0  0  0  0  0  0
    5.4730    3.9849    0.0000 C   0  0  0  0  0  0  0  0  0  0  0  0
    9.7599    3.9849    0.0000 O   0  0  0  0  0  0  0  0  0  0  0  0
   10.4743    3.5724    0.0000 C   0  0  0  0  0  0  0  0  0  0  0  0
   10.4743    2.7474    0.0000 C   0  0  0  0  0  0  0  0  0  0  0  0
   11.1888    2.3349    0.0000 C   0  0  0  0  0  0  0  0  0  0  0  0
   11.1888    3.9849    0.0000 O   0  0  0  0  0  0  0  0  0  0  0  0
   11.9033    3.5724    0.0000 C   0  0  0  0  0  0  0  0  0  0  0  0
   12.6177    3.9849    0.0000 C   0  0  0  0  0  0  0  0  0  0  0  0
   13.3322    3.5724    0.0000 C   0  0  0  0  0  0  0  0  0  0  0  0
   14.0467    3.9849    0.0000 C   0  0  0  0  0  0  0  0  0  0  0  0
  1  2  1  0  0  0  0
  2  3  1  0  0  0  0
  3  4  1  0  0  0  0
  4  5  1  0  0  0  0
  5  6  1  0  0  0  0
  5  7  1  0  0  0  0
  7  8  1  0  0  0  0
  2  9  1  0  0  0  0
  9 10  1  0  0  0  0
 10 11  1  0  0  0  0
 11 12  1  0  0  0  0
 10 13  1  0  0  0  0
 13 14  1  0  0  0  0
 14 15  1  0  0  0  0
 15 16  1  0  0  0  0
 16 17  1  0  0  0  0
M  END
> <RowID>
1049

> <Original_SMILES>
CC(COC(O)CC)OC(CC)OCCCC

> <Canonical_QSARr>
CC(COC(O)CC)OC(CC)OCCCC

> <InChI_Code_QSARr>
InChI=1S/C13H28O4/c1-5-8-9-15-13(7-3)17-11(4)10-16-12(14)6-2/h11-14H,5-10H2,1-4H3

> <InChI Key_QSARr>
RNFAKTRFMQEEQE-UHFFFAOYSA-N

> <Salt_Solvent>


> <Salt_Solvent_ID>
0

> <Number of connected components>
1

$$$$
Molecule_1051
  Mrv2316 01072400032D          

 21 22  0  0  0  0            999 V2000
   -6.4303    2.8875    0.0000 O   0  0  0  0  0  0  0  0  0  0  0  0
   -5.7158    2.4750    0.0000 S   0  0  0  0  0  0  0  0  0  0  0  0
   -6.1283    1.7605    0.0000 O   0  0  0  0  0  0  0  0  0  0  0  0
   -5.3033    3.1895    0.0000 O   0  0  0  0  0  0  0  0  0  0  0  0
   -5.0013    2.0625    0.0000 C   0  0  0  0  0  0  0  0  0  0  0  0
   -4.2868    2.4750    0.0000 C   0  0  0  0  0  0  0  0  0  0  0  0
   -3.5724    2.0625    0.0000 C   0  0  0  0  0  0  0  0  0  0  0  0
   -2.8579    2.4750    0.0000 C   0  0  0  0  0  0  0  0  0  0  0  0
   -2.1434    2.0625    0.0000 C   0  0  0  0  0  0  0  0  0  0  0  0
   -1.4290    2.4750    0.0000 N   0  0  0  0  0  0  0  0  0  0  0  0
   -0.7145    2.0625    0.0000 C   0  0  0  0  0  0  0  0  0  0  0  0
   -0.0000    2.4750    0.0000 O   0  0  0  0  0  0  0  0  0  0  0  0
    0.7145    2.0625    0.0000 C   0  0  0  0  0  0  0  0  0  0  0  0
    1.4289    2.4750    0.0000 C   0  0  0  0  0  0  0  0  0  0  0  0
   -0.7145    1.2375    0.0000 O   0  0  0  0  0  0  0  0  0  0  0  0
   -2.1434    1.2375    0.0000 C   0  0  0  0  0  0  0  0  0  0  0  0
   -2.8579    0.8250    0.0000 C   0  0  0  0  0  0  0  0  0  0  0  0
   -3.5724    1.2375    0.0000 C   0  0  0  0  0  0  0  0  0  0  0  0
   -4.2868    0.8250    0.0000 C   0  0  0  0  0  0  0  0  0  0  0  0
   -4.2868    0.0000    0.0000 O   0  0  0  0  0  0  0  0  0  0  0  0
   -5.0013    1.2375    0.0000 C   0  0  0  0  0  0  0  0  0  0  0  0
  1  2  1  0  0  0  0
  2  3  2  0  0  0  0
  2  4  2  0  0  0  0
  2  5  1  0  0  0  0
  6  5  2  0  0  0  0
  7  6  1  0  0  0  0
  7  8  1  0  0  0  0
  8  9  2  0  0  0  0
  9 10  1  0  0  0  0
 10 11  1  0  0  0  0
 11 12  1  0  0  0  0
 12 13  1  0  0  0  0
 13 14  1  0  0  0  0
 11 15  2  0  0  0  0
  9 16  1  0  0  0  0
 16 17  2  0  0  0  0
 17 18  1  0  0  0  0
 18  7  2  0  0  0  0
 19 18  1  0  0  0  0
 19 20  1  0  0  0  0
 21 19  2  0  0  0  0
  5 21  1  0  0  0  0
M  END
> <RowID>
1051

> <Original_SMILES>
[Na+].CCOC(=O)NC1=CC2C=C(C=C(O)C=2C=C1)S([O-])(=O)=O

> <Canonical_QSARr>
CCOC(=O)NC1=CC2C=C(C=C(O)C=2C=C1)S(O)(=O)=O

> <InChI_Code_QSARr>
InChI=1S/C13H13NO6S/c1-2-20-13(16)14-9-3-4-11-8(5-9)6-10(7-12(11)15)21(17,18)19/h3-7,15H,2H2,1H3,(H,14,16)(H,17,18,19)

> <InChI Key_QSARr>
JIHHLANXRPMYTR-UHFFFAOYSA-N

> <Salt_Solvent>
[Na+]

> <Salt_Solvent_ID>
110

> <Number of connected components>
2

$$$$
Molecule_1052
  Mrv2316 01072400032D          

 13 13  0  0  0  0            999 V2000
    1.7587    4.9500    0.0000 C   0  0  0  0  0  0  0  0  0  0  0  0
    1.0442    4.5375    0.0000 C   0  0  0  0  0  0  0  0  0  0  0  0
    0.3298    4.9500    0.0000 O   0  0  0  0  0  0  0  0  0  0  0  0
    1.0442    3.7125    0.0000 O   0  0  0  0  0  0  0  0  0  0  0  0
    0.3298    3.3000    0.0000 C   0  0  0  0  0  0  0  0  0  0  0  0
    0.3298    2.4750    0.0000 C   0  0  0  0  0  0  0  0  0  0  0  0
   -0.3847    2.0625    0.0000 C   0  0  0  0  0  0  0  0  0  0  0  0
   -0.3847    1.2375    0.0000 C   0  0  0  0  0  0  0  0  0  0  0  0
   -1.0992    0.8250    0.0000 C   0  0  0  0  0  0  0  0  0  0  0  0
   -1.0992   -0.0000    0.0000 C   0  0  0  0  0  0  0  0  0  0  0  0
   -0.3847   -0.4125    0.0000 C   0  0  0  0  0  0  0  0  0  0  0  0
    0.3298    0.0000    0.0000 C   0  0  0  0  0  0  0  0  0  0  0  0
    0.3298    0.8250    0.0000 C   0  0  0  0  0  0  0  0  0  0  0  0
  1  2  1  0  0  0  0
  2  3  2  0  0  0  0
  2  4  1  0  0  0  0
  4  5  1  0  0  0  0
  6  5  1  4  0  0  0
  6  7  2  0  0  0  0
  7  8  1  0  0  0  0
  9  8  1  0  0  0  0
 10  9  2  0  0  0  0
 11 10  1  0  0  0  0
 12 11  2  0  0  0  0
 13 12  1  0  0  0  0
  8 13  2  0  0  0  0
M  END
> <RowID>
1052

> <Original_SMILES>
CC(=O)OCC=CC1C=CC=CC=1

> <Canonical_QSARr>
CC(=O)OCC=CC1C=CC=CC=1

> <InChI_Code_QSARr>
InChI=1S/C11H12O2/c1-10(12)13-9-5-8-11-6-3-2-4-7-11/h2-8H,9H2,1H3

> <InChI Key_QSARr>
WJSDHUCWMSHDCR-UHFFFAOYSA-N

> <Salt_Solvent>


> <Salt_Solvent_ID>
0

> <Number of connected components>
1

$$$$
Molecule_1054
  Mrv2316 01072400032D          

 24 25  0  0  0  0            999 V2000
    2.4356   -6.0493    0.0000 C   0  0  0  0  0  0  0  0  0  0  0  0
    1.9506   -5.3818    0.0000 C   0  0  0  0  0  0  0  0  0  0  0  0
    2.2056   -4.5972    0.0000 N   0  0  0  0  0  0  0  0  0  0  0  0
    1.5381   -4.1123    0.0000 C   0  0  0  0  0  0  0  0  0  0  0  0
    1.5381   -3.2873    0.0000 C   0  0  0  0  0  0  0  0  0  0  0  0
    2.2526   -2.8748    0.0000 C   0  0  0  0  0  0  0  0  0  0  0  0
    2.2526   -2.0498    0.0000 C   0  0  0  0  0  0  0  0  0  0  0  0
    2.9671   -1.6373    0.0000 C   0  0  0  0  0  0  0  0  0  0  0  0
    2.9671   -0.8123    0.0000 O   0  0  0  0  0  0  0  0  0  0  0  0
    1.5381   -1.6373    0.0000 C   0  0  0  0  0  0  0  0  0  0  0  0
    1.5381   -0.8123    0.0000 O   0  0  0  0  0  0  0  0  0  0  0  0
    0.8237   -0.3998    0.0000 C   0  0  0  0  0  0  0  0  0  0  0  0
    0.8237    0.4252    0.0000 C   0  0  0  0  0  0  0  0  0  0  0  0
    0.1092    0.8377    0.0000 C   0  0  0  0  0  0  0  0  0  0  0  0
    1.5381    0.8377    0.0000 C   0  0  0  0  0  0  0  0  0  0  0  0
    0.8237   -2.0498    0.0000 C   0  0  0  0  0  0  0  0  0  0  0  0
    0.8237   -2.8748    0.0000 C   0  0  0  0  0  0  0  0  0  0  0  0
    0.8707   -4.5972    0.0000 S   0  0  0  0  0  0  0  0  0  0  0  0
    1.1256   -5.3818    0.0000 C   0  0  0  0  0  0  0  0  0  0  0  0
    0.6407   -6.0493    0.0000 C   0  0  0  0  0  0  0  0  0  0  0  0
   -0.1798   -5.9630    0.0000 O   0  0  0  0  0  0  0  0  0  0  0  0
    0.9763   -6.8029    0.0000 O   0  0  0  0  0  0  0  0  0  0  0  0
    0.4914   -7.4704    0.0000 C   0  0  0  0  0  0  0  0  0  0  0  0
    0.8269   -8.2241    0.0000 C   0  0  0  0  0  0  0  0  0  0  0  0
  1  2  1  0  0  0  0
  3  2  1  0  0  0  0
  4  3  2  0  0  0  0
  4  5  1  0  0  0  0
  6  5  2  0  0  0  0
  7  6  1  0  0  0  0
  7  8  1  0  0  0  0
  8  9  2  0  0  0  0
 10  7  2  0  0  0  0
 10 11  1  0  0  0  0
 11 12  1  0  0  0  0
 12 13  1  0  0  0  0
 13 14  1  0  0  0  0
 13 15  1  0  0  0  0
 16 10  1  0  0  0  0
 17 16  2  0  0  0  0
  5 17  1  0  0  0  0
 18  4  1  0  0  0  0
 19 18  1  0  0  0  0
  2 19  2  0  0  0  0
 19 20  1  0  0  0  0
 20 21  2  0  0  0  0
 20 22  1  0  0  0  0
 22 23  1  0  0  0  0
 23 24  1  0  0  0  0
M  END
> <RowID>
1054

> <Original_SMILES>
CC1N=C(SC=1C(=O)OCC)C1=CC(C=O)=C(C=C1)OCC(C)C

> <Canonical_QSARr>
CC1N=C(SC=1C(=O)OCC)C1=CC(C=O)=C(C=C1)OCC(C)C

> <InChI_Code_QSARr>
InChI=1S/C18H21NO4S/c1-5-22-18(21)16-12(4)19-17(24-16)13-6-7-15(14(8-13)9-20)23-10-11(2)3/h6-9,11H,5,10H2,1-4H3

> <InChI Key_QSARr>
AIQMFFCWDAIGNV-UHFFFAOYSA-N

> <Salt_Solvent>


> <Salt_Solvent_ID>
0

> <Number of connected components>
1

$$$$
Molecule_1055
  Mrv2316 01072400032D          

 17 16  0  0  0  0            999 V2000
    1.6500    0.0000    0.0000 S   0  0  0  0  0  0  0  0  0  0  0  0
    0.8250    0.0000    0.0000 P   0  0  0  0  0  0  0  0  0  0  0  0
    0.8250    0.8250    0.0000 O   0  0  0  0  0  0  0  0  0  0  0  0
    1.5395    1.2375    0.0000 C   0  0  0  0  0  0  0  0  0  0  0  0
    1.5395    2.0625    0.0000 C   0  0  0  0  0  0  0  0  0  0  0  0
    2.2539    2.4750    0.0000 C   0  0  0  0  0  0  0  0  0  0  0  0
    2.2539    3.3000    0.0000 C   0  0  0  0  0  0  0  0  0  0  0  0
    2.9684    2.0625    0.0000 C   0  0  0  0  0  0  0  0  0  0  0  0
    2.2539    0.8250    0.0000 C   0  0  0  0  0  0  0  0  0  0  0  0
    0.8250   -0.8250    0.0000 O   0  0  0  0  0  0  0  0  0  0  0  0
    0.1105   -1.2375    0.0000 C   0  0  0  0  0  0  0  0  0  0  0  0
    0.1105   -2.0625    0.0000 C   0  0  0  0  0  0  0  0  0  0  0  0
   -0.6039   -2.4750    0.0000 C   0  0  0  0  0  0  0  0  0  0  0  0
   -0.6039   -3.3000    0.0000 C   0  0  0  0  0  0  0  0  0  0  0  0
   -1.3184   -2.0625    0.0000 C   0  0  0  0  0  0  0  0  0  0  0  0
   -0.6039   -0.8250    0.0000 C   0  0  0  0  0  0  0  0  0  0  0  0
    0.0000    0.0000    0.0000 S   0  0  0  0  0  0  0  0  0  0  0  0
  1  2  1  0  0  0  0
  2  3  1  0  0  0  0
  3  4  1  0  0  0  0
  4  5  1  0  0  0  0
  5  6  1  0  0  0  0
  6  7  1  0  0  0  0
  6  8  1  0  0  0  0
  4  9  1  0  0  0  0
  2 10  1  0  0  0  0
 10 11  1  0  0  0  0
 11 12  1  0  0  0  0
 12 13  1  0  0  0  0
 13 14  1  0  0  0  0
 13 15  1  0  0  0  0
 11 16  1  0  0  0  0
  2 17  2  0  0  0  0
M  END
> <RowID>
1055

> <Original_SMILES>
[Zn+2].CC(C)CC(C)OP([S-])(=S)OC(C)CC(C)C.CC(C)CC(C)OP([S-])(=S)OC(C)CC(C)C

> <Canonical_QSARr>
CC(C)CC(C)OP(S)(=S)OC(C)CC(C)C

> <InChI_Code_QSARr>
InChI=1S/C12H27O2PS2/c1-9(2)7-11(5)13-15(16,17)14-12(6)8-10(3)4/h9-12H,7-8H2,1-6H3,(H,16,17)

> <InChI Key_QSARr>
KGYKKBGZPGVFOS-UHFFFAOYSA-N

> <Salt_Solvent>
[Zn+2]

> <Salt_Solvent_ID>
300

> <Number of connected components>
3

$$$$
Molecule_1056
  Mrv2316 01072400032D          

 33 38  0  0  0  0            999 V2000
    5.0618    2.9049    0.0000 C   0  0  0  0  0  0  0  0  0  0  0  0
    4.3450    2.4965    0.0000 C   0  0  0  0  0  0  0  0  0  0  0  0
    4.8261    1.8263    0.0000 C   0  0  0  0  0  0  0  0  0  0  0  0
    4.0137    3.2520    0.0000 O   0  0  0  0  0  0  0  0  0  0  0  0
    3.1927    3.1704    0.0000 C   0  0  0  0  0  0  0  0  0  0  0  0
    2.4806    3.5869    0.0000 C   0  0  0  0  0  0  0  0  0  0  0  0
    1.8644    3.0383    0.0000 C   0  0  0  0  0  0  0  0  0  0  0  0
    1.0444    3.1292    0.0000 C   0  0  0  0  0  0  0  0  0  0  0  0
    0.7131    3.8848    0.0000 C   0  0  0  0  0  0  0  0  0  0  0  0
   -0.1069    3.9756    0.0000 C   0  0  0  0  0  0  0  0  0  0  0  0
   -0.5956    3.3109    0.0000 C   0  0  0  0  0  0  0  0  0  0  0  0
   -1.4155    3.4018    0.0000 C   0  0  0  0  0  0  0  0  0  0  0  0
   -1.9042    2.7371    0.0000 C   0  0  0  0  0  0  0  0  0  0  0  0
   -2.7242    2.8279    0.0000 O   0  0  0  0  0  0  0  0  0  0  0  0
   -1.5729    1.9815    0.0000 C   0  0  0  0  0  0  0  0  0  0  0  0
   -0.7529    1.8907    0.0000 C   0  0  0  0  0  0  0  0  0  0  0  0
   -0.2643    2.5554    0.0000 C   0  0  0  0  0  0  0  0  0  0  0  0
   -0.4403    1.7494    0.0000 C   0  0  0  0  0  0  0  0  0  0  0  0
    0.5557    2.4645    0.0000 C   0  0  0  0  0  0  0  0  0  0  0  0
    0.0670    1.7998    0.0000 O   0  0  0  0  0  0  0  0  0  0  0  0
    0.8870    1.7090    0.0000 C   0  0  0  0  0  0  0  0  0  0  0  0
    1.7070    1.6181    0.0000 C   0  0  0  0  0  0  0  0  0  0  0  0
    2.1957    2.2828    0.0000 C   0  0  0  0  0  0  0  0  0  0  0  0
    2.6042    1.5660    0.0000 C   0  0  0  0  0  0  0  0  0  0  0  0
    3.0166    2.3644    0.0000 C   0  0  0  0  0  0  0  0  0  0  0  0
    3.0983    1.5435    0.0000 C   0  0  0  0  0  0  0  0  0  0  0  0
    3.8500    1.2037    0.0000 O   0  0  0  0  0  0  0  0  0  0  0  0
    2.4281    1.0623    0.0000 C   0  0  0  0  0  0  0  0  0  0  0  0
    2.5097    0.2413    0.0000 O   0  0  0  0  0  0  0  0  0  0  0  0
    1.8395   -0.2398    0.0000 C   0  0  0  0  0  0  0  0  0  0  0  0
    1.9212   -1.0608    0.0000 C   0  0  0  0  0  0  0  0  0  0  0  0
    1.0878    0.1000    0.0000 O   0  0  0  0  0  0  0  0  0  0  0  0
    3.7288    1.9479    0.0000 O   0  0  0  0  0  0  0  0  0  0  0  0
  1  2  1  0  0  0  0
  2  3  1  0  0  0  0
  4  2  1  0  0  0  0
  5  4  1  0  0  0  0
  5  6  1  0  0  0  0
  6  7  1  0  0  0  0
  8  7  1  0  0  0  0
  8  9  1  0  0  0  0
  9 10  1  0  0  0  0
 10 11  1  0  0  0  0
 12 11  2  0  0  0  0
 13 12  1  0  0  0  0
 13 14  2  0  0  0  0
 15 13  1  0  0  0  0
 16 15  2  0  0  0  0
 17 16  1  0  0  0  0
 11 17  1  0  0  0  0
 17 18  1  0  0  0  0
 17 19  1  0  0  0  0
 19  8  1  0  0  0  0
 19 20  1  0  0  0  0
 20 21  1  0  0  0  0
 21 19  1  0  0  0  0
 22 21  1  0  0  0  0
 23 22  1  0  0  0  0
  7 23  1  0  0  0  0
 23 24  1  0  0  0  0
 23 25  1  0  0  0  0
 25  5  1  0  0  0  0
 25 26  1  0  0  0  0
 26 27  2  0  0  0  0
 26 28  1  0  0  0  0
 28 29  1  0  0  0  0
 29 30  1  0  0  0  0
 30 31  1  0  0  0  0
 30 32  2  0  0  0  0
 33 25  1  0  0  0  0
  2 33  1  0  0  0  0
M  END
> <RowID>
1056

> <Original_SMILES>
CC1(C)OC2CC3C4CCC5=CC(=O)C=CC5(C)C54OC5CC3(C)C2(O1)C(=O)COC(C)=O

> <Canonical_QSARr>
CC1(C)OC2CC3C4CCC5=CC(=O)C=CC5(C)C54OC5CC3(C)C2(O1)C(=O)COC(C)=O

> <InChI_Code_QSARr>
InChI=1S/C26H32O7/c1-14(27)30-13-19(29)26-20(31-22(2,3)33-26)11-18-17-7-6-15-10-16(28)8-9-23(15,4)25(17)21(32-25)12-24(18,26)5/h8-10,17-18,20-21H,6-7,11-13H2,1-5H3

> <InChI Key_QSARr>
QMZVJUWCRCSUBK-UHFFFAOYSA-N

> <Salt_Solvent>


> <Salt_Solvent_ID>
0

> <Number of connected components>
1

$$$$
Molecule_1057
  Mrv2316 01072400032D          

 13 12  0  0  0  0            999 V2000
    5.4730    3.9849    0.0000 C   0  0  0  0  0  0  0  0  0  0  0  0
    6.1875    3.5724    0.0000 C   0  0  0  0  0  0  0  0  0  0  0  0
    6.9020    3.9849    0.0000 C   0  0  0  0  0  0  0  0  0  0  0  0
    7.6164    3.5724    0.0000 C   0  0  0  0  0  0  0  0  0  0  0  0
    8.3309    3.9849    0.0000 C   0  0  0  0  0  0  0  0  0  0  0  0
    9.0454    3.5724    0.0000 C   0  0  0  0  0  0  0  0  0  0  0  0
    9.7599    3.9849    0.0000 C   0  0  0  0  0  0  0  0  0  0  0  0
   10.4743    3.5724    0.0000 C   0  0  0  0  0  0  0  0  0  0  0  0
   11.1888    3.9849    0.0000 C   0  0  0  0  0  0  0  0  0  0  0  0
   11.9033    3.5724    0.0000 C   0  0  0  0  0  0  0  0  0  0  0  0
   12.6177    3.9849    0.0000 C   0  0  0  0  0  0  0  0  0  0  0  0
   13.3322    3.5724    0.0000 C   0  0  0  0  0  0  0  0  0  0  0  0
   14.0467    3.9849    0.0000 C   0  0  0  0  0  0  0  0  0  0  0  0
  1  2  1  0  0  0  0
  2  3  1  0  0  0  0
  3  4  1  0  0  0  0
  4  5  1  0  0  0  0
  5  6  1  0  0  0  0
  6  7  1  0  0  0  0
  7  8  1  0  0  0  0
  8  9  1  0  0  0  0
  9 10  1  0  0  0  0
 10 11  1  0  0  0  0
 11 12  1  0  0  0  0
 12 13  2  0  0  0  0
M  END
> <RowID>
1057

> <Original_SMILES>
CCCCCCCCCCCC=C

> <Canonical_QSARr>
CCCCCCCCCCCC=C

> <InChI_Code_QSARr>
InChI=1S/C13H26/c1-3-5-7-9-11-13-12-10-8-6-4-2/h3H,1,4-13H2,2H3

> <InChI Key_QSARr>
VQOXUMQBYILCKR-UHFFFAOYSA-N

> <Salt_Solvent>


> <Salt_Solvent_ID>
0

> <Number of connected components>
1

$$$$
Molecule_1058
  Mrv2316 01072400032D          

 15 15  0  0  0  0            999 V2000
    0.0000   -1.4850    0.0000 C   0  0  0  0  0  0  0  0  0  0  0  0
    0.0000   -0.6600    0.0000 O   0  0  0  0  0  0  0  0  0  0  0  0
    0.7145   -0.2475    0.0000 C   0  0  0  0  0  0  0  0  0  0  0  0
    1.4289   -0.6600    0.0000 O   0  0  0  0  0  0  0  0  0  0  0  0
    0.7145    0.5775    0.0000 C   0  0  0  0  0  0  0  0  0  0  0  0
    1.4289    0.9900    0.0000 C   0  0  0  0  0  0  0  0  0  0  0  0
    1.4289    1.8150    0.0000 C   0  0  0  0  0  0  0  0  0  0  0  0
    0.7145    2.2275    0.0000 C   0  0  0  0  0  0  0  0  0  0  0  0
    0.7145    3.0525    0.0000 C   0  0  0  0  0  0  0  0  0  0  0  0
    0.7145    3.8775    0.0000 N   0  0  0  0  0  0  0  0  0  0  0  0
    0.0000    1.8150    0.0000 C   0  0  0  0  0  0  0  0  0  0  0  0
    0.0000    0.9900    0.0000 C   0  0  0  0  0  0  0  0  0  0  0  0
   -0.7145    0.5775    0.0000 N   0  3  0  0  0  0  0  0  0  0  0  0
   -0.7145   -0.2475    0.0000 O   0  5  0  0  0  0  0  0  0  0  0  0
   -1.4289    0.9900    0.0000 O   0  0  0  0  0  0  0  0  0  0  0  0
  1  2  1  0  0  0  0
  2  3  1  0  0  0  0
  3  4  2  0  0  0  0
  3  5  1  0  0  0  0
  6  5  2  0  0  0  0
  7  6  1  0  0  0  0
  8  7  2  0  0  0  0
  8  9  1  0  0  0  0
  9 10  3  0  0  0  0
 11  8  1  0  0  0  0
 12 11  2  0  0  0  0
  5 12  1  0  0  0  0
 12 13  1  0  0  0  0
 13 14  1  0  0  0  0
 13 15  2  0  0  0  0
M  CHG  2  13   1  14  -1
M  END
> <RowID>
1058

> <Original_SMILES>
COC(=O)C1=CC=C(C=C1[N+]([O-])=O)C#N

> <Canonical_QSARr>
COC(=O)C1=CC=C(C=C1[N+]([O-])=O)C#N

> <InChI_Code_QSARr>
InChI=1S/C9H6N2O4/c1-15-9(12)7-3-2-6(5-10)4-8(7)11(13)14/h2-4H,1H3

> <InChI Key_QSARr>
VNJLHPJTOHUNQK-UHFFFAOYSA-N

> <Salt_Solvent>


> <Salt_Solvent_ID>
0

> <Number of connected components>
1

$$$$
Molecule_1059
  Mrv2316 01072400032D          

 11 12  0  0  0  0            999 V2000
    0.0000   -1.6500    0.0000 O   0  0  0  0  0  0  0  0  0  0  0  0
    0.7145   -1.2375    0.0000 C   0  0  0  0  0  0  0  0  0  0  0  0
    0.7145   -0.4125    0.0000 C   0  0  0  0  0  0  0  0  0  0  0  0
    1.4289    0.0000    0.0000 C   0  0  0  0  0  0  0  0  0  0  0  0
    2.1434   -0.4125    0.0000 C   0  0  0  0  0  0  0  0  0  0  0  0
    2.8579    0.0000    0.0000 C   0  0  0  0  0  0  0  0  0  0  0  0
    3.5724   -0.4125    0.0000 C   0  0  0  0  0  0  0  0  0  0  0  0
    3.5724   -1.2375    0.0000 C   0  0  0  0  0  0  0  0  0  0  0  0
    2.8579   -1.6500    0.0000 C   0  0  0  0  0  0  0  0  0  0  0  0
    2.1434   -1.2375    0.0000 C   0  0  0  0  0  0  0  0  0  0  0  0
    1.4289   -1.6500    0.0000 O   0  0  0  0  0  0  0  0  0  0  0  0
  1  2  2  0  0  0  0
  3  2  1  0  0  0  0
  4  3  2  0  0  0  0
  5  4  1  0  0  0  0
  5  6  1  0  0  0  0
  6  7  2  0  0  0  0
  7  8  1  0  0  0  0
  8  9  2  0  0  0  0
  9 10  1  0  0  0  0
 10  5  2  0  0  0  0
 11 10  1  0  0  0  0
  2 11  1  0  0  0  0
M  END
> <RowID>
1059

> <Original_SMILES>
O=C1C=CC2C=CC=CC=2O1

> <Canonical_QSARr>
O=C1C=CC2C=CC=CC=2O1

> <InChI_Code_QSARr>
InChI=1S/C9H6O2/c10-9-6-5-7-3-1-2-4-8(7)11-9/h1-6H

> <InChI Key_QSARr>
ZYGHJZDHTFUPRJ-UHFFFAOYSA-N

> <Salt_Solvent>


> <Salt_Solvent_ID>
0

> <Number of connected components>
1

$$$$
Molecule_1060
  Mrv2316 01072400032D          

 16 15  0  0  0  0            999 V2000
   -1.3184   -0.4125    0.0000 O   0  0  0  0  0  0  0  0  0  0  0  0
   -0.6039   -0.8250    0.0000 P   0  0  0  0  0  0  0  0  0  0  0  0
   -1.0164   -1.5395    0.0000 O   0  0  0  0  0  0  0  0  0  0  0  0
   -0.1914   -0.1105    0.0000 O   0  0  0  0  0  0  0  0  0  0  0  0
    0.1105   -1.2375    0.0000 C   0  0  0  0  0  0  0  0  0  0  0  0
    0.8250   -0.8250    0.0000 N   0  0  0  0  0  0  0  0  0  0  0  0
    1.5395   -1.2375    0.0000 C   0  0  0  0  0  0  0  0  0  0  0  0
    1.5395   -2.0625    0.0000 P   0  0  0  0  0  0  0  0  0  0  0  0
    0.7145   -2.0625    0.0000 O   0  0  0  0  0  0  0  0  0  0  0  0
    2.3645   -2.0625    0.0000 O   0  0  0  0  0  0  0  0  0  0  0  0
    1.5395   -2.8875    0.0000 O   0  0  0  0  0  0  0  0  0  0  0  0
    0.8250   -0.0000    0.0000 C   0  0  0  0  0  0  0  0  0  0  0  0
    1.5395    0.4125    0.0000 P   0  0  0  0  0  0  0  0  0  0  0  0
    1.9520   -0.3020    0.0000 O   0  0  0  0  0  0  0  0  0  0  0  0
    1.1270    1.1270    0.0000 O   0  0  0  0  0  0  0  0  0  0  0  0
    2.2540    0.8250    0.0000 O   0  0  0  0  0  0  0  0  0  0  0  0
  1  2  1  0  0  0  0
  2  3  1  0  0  0  0
  2  4  2  0  0  0  0
  2  5  1  0  0  0  0
  5  6  1  0  0  0  0
  6  7  1  0  0  0  0
  7  8  1  0  0  0  0
  8  9  1  0  0  0  0
  8 10  1  0  0  0  0
  8 11  2  0  0  0  0
  6 12  1  0  0  0  0
 12 13  1  0  0  0  0
 13 14  1  0  0  0  0
 13 15  1  0  0  0  0
 13 16  2  0  0  0  0
M  END
> <RowID>
1060

> <Original_SMILES>
[K+].[K+].[K+].[O-]P(O)(=O)CN(CP([O-])(O)=O)CP([O-])(O)=O

> <Canonical_QSARr>
OP(O)(=O)CN(CP(O)(O)=O)CP(O)(O)=O

> <InChI_Code_QSARr>
InChI=1S/C3H12NO9P3/c5-14(6,7)1-4(2-15(8,9)10)3-16(11,12)13/h1-3H2,(H2,5,6,7)(H2,8,9,10)(H2,11,12,13)

> <InChI Key_QSARr>
YDONNITUKPKTIG-UHFFFAOYSA-N

> <Salt_Solvent>
[K+]

> <Salt_Solvent_ID>
190

> <Number of connected components>
4

$$$$
Molecule_1061
  Mrv2316 01072400032D          

 36 40  0  0  0  0            999 V2000
    6.4302    3.7125    0.0000 C   0  0  0  0  0  0  0  0  0  0  0  0
    5.7158    3.3000    0.0000 C   0  0  0  0  0  0  0  0  0  0  0  0
    5.0013    3.7125    0.0000 C   0  0  0  0  0  0  0  0  0  0  0  0
    4.2868    3.3000    0.0000 C   0  0  0  0  0  0  0  0  0  0  0  0
    3.5724    3.7125    0.0000 C   0  0  0  0  0  0  0  0  0  0  0  0
    4.2868    2.4750    0.0000 C   0  0  0  0  0  0  0  0  0  0  0  0
    3.5724    2.0625    0.0000 N   0  0  0  0  0  0  0  0  0  0  0  0
    3.5724    1.2375    0.0000 C   0  0  0  0  0  0  0  0  0  0  0  0
    4.2868    0.8250    0.0000 C   0  0  0  0  0  0  0  0  0  0  0  0
    4.2868   -0.0000    0.0000 C   0  0  0  0  0  0  0  0  0  0  0  0
    3.5724   -0.4125    0.0000 C   0  0  0  0  0  0  0  0  0  0  0  0
    3.5724   -1.2375    0.0000 N   0  0  0  0  0  0  0  0  0  0  0  0
    4.2868   -1.6500    0.0000 C   0  0  0  0  0  0  0  0  0  0  0  0
    4.2868   -2.4750    0.0000 C   0  0  0  0  0  0  0  0  0  0  0  0
    3.5724   -2.8875    0.0000 C   0  0  0  0  0  0  0  0  0  0  0  0
    5.0013   -2.8875    0.0000 C   0  0  0  0  0  0  0  0  0  0  0  0
    5.7158   -2.4750    0.0000 C   0  0  0  0  0  0  0  0  0  0  0  0
    6.4302   -2.8875    0.0000 C   0  0  0  0  0  0  0  0  0  0  0  0
    5.7158   -1.6500    0.0000 C   0  0  0  0  0  0  0  0  0  0  0  0
    5.0013   -1.2375    0.0000 C   0  0  0  0  0  0  0  0  0  0  0  0
    5.0013   -0.4125    0.0000 C   0  0  0  0  0  0  0  0  0  0  0  0
    2.8579   -0.0000    0.0000 C   0  0  0  0  0  0  0  0  0  0  0  0
    2.8579    0.8250    0.0000 C   0  0  0  0  0  0  0  0  0  0  0  0
    2.1434    1.2375    0.0000 C   0  0  0  0  0  0  0  0  0  0  0  0
    2.1434    2.0625    0.0000 O   0  0  0  0  0  0  0  0  0  0  0  0
    1.4289    0.8250    0.0000 C   0  0  0  0  0  0  0  0  0  0  0  0
    0.7145    1.2375    0.0000 C   0  0  0  0  0  0  0  0  0  0  0  0
    0.0000    0.8250    0.0000 C   0  0  0  0  0  0  0  0  0  0  0  0
    0.0000   -0.0000    0.0000 C   0  0  0  0  0  0  0  0  0  0  0  0
    0.7145   -0.4125    0.0000 C   0  0  0  0  0  0  0  0  0  0  0  0
    1.4289    0.0000    0.0000 C   0  0  0  0  0  0  0  0  0  0  0  0
    2.1434   -0.4125    0.0000 C   0  0  0  0  0  0  0  0  0  0  0  0
    2.1434   -1.2375    0.0000 O   0  0  0  0  0  0  0  0  0  0  0  0
    5.0013    2.0625    0.0000 C   0  0  0  0  0  0  0  0  0  0  0  0
    5.0013    1.2375    0.0000 C   0  0  0  0  0  0  0  0  0  0  0  0
    5.7158    2.4750    0.0000 C   0  0  0  0  0  0  0  0  0  0  0  0
  1  2  1  0  0  0  0
  3  2  2  0  0  0  0
  4  3  1  0  0  0  0
  4  5  1  0  0  0  0
  6  4  2  0  0  0  0
  6  7  1  0  0  0  0
  7  8  1  0  0  0  0
  9  8  2  0  0  0  0
 10  9  1  0  0  0  0
 11 10  2  0  0  0  0
 11 12  1  0  0  0  0
 12 13  1  0  0  0  0
 14 13  1  0  0  0  0
 14 15  1  0  0  0  0
 16 14  2  0  0  0  0
 17 16  1  0  0  0  0
 17 18  1  0  0  0  0
 19 17  2  0  0  0  0
 20 19  1  0  0  0  0
 13 20  2  0  0  0  0
 20 21  1  0  0  0  0
 22 11  1  0  0  0  0
 22 23  2  0  0  0  0
  8 23  1  0  0  0  0
 23 24  1  0  0  0  0
 24 25  2  0  0  0  0
 24 26  1  0  0  0  0
 27 26  2  0  0  0  0
 28 27  1  0  0  0  0
 29 28  2  0  0  0  0
 30 29  1  0  0  0  0
 31 30  2  0  0  0  0
 26 31  1  0  0  0  0
 31 32  1  0  0  0  0
 32 22  1  0  0  0  0
 32 33  2  0  0  0  0
 34  6  1  0  0  0  0
 34 35  1  0  0  0  0
 36 34  2  0  0  0  0
  2 36  1  0  0  0  0
M  END
> <RowID>
1061

> <Original_SMILES>
CC1=CC(C)=C(NC2=CC=C(NC3C(C)=CC(C)=CC=3C)C3=C2C(=O)C2=CC=CC=C2C3=O)C(C)=C1

> <Canonical_QSARr>
CC1=CC(C)=C(NC2=CC=C(NC3C(C)=CC(C)=CC=3C)C3=C2C(=O)C2=CC=CC=C2C3=O)C(C)=C1

> <InChI_Code_QSARr>
InChI=1S/C32H30N2O2/c1-17-13-19(3)29(20(4)14-17)33-25-11-12-26(34-30-21(5)15-18(2)16-22(30)6)28-27(25)31(35)23-9-7-8-10-24(23)32(28)36/h7-16,33-34H,1-6H3

> <InChI Key_QSARr>
DMDRBXCDTZRMHZ-UHFFFAOYSA-N

> <Salt_Solvent>


> <Salt_Solvent_ID>
0

> <Number of connected components>
1

$$$$
Molecule_1062
  Mrv2316 01072400032D          

 24 25  0  0  0  0            999 V2000
    3.5724   -3.7125    0.0000 Br  0  0  0  0  0  0  0  0  0  0  0  0
    2.8579   -4.1250    0.0000 C   0  0  0  0  0  0  0  0  0  0  0  0
    2.1434   -3.7125    0.0000 C   0  0  0  0  0  0  0  0  0  0  0  0
    2.1434   -2.8875    0.0000 C   0  0  0  0  0  0  0  0  0  0  0  0
    1.4289   -2.4750    0.0000 C   0  0  0  0  0  0  0  0  0  0  0  0
    1.4289   -1.6500    0.0000 C   0  0  0  0  0  0  0  0  0  0  0  0
    2.1434   -1.2375    0.0000 C   0  0  0  0  0  0  0  0  0  0  0  0
    2.8579   -1.6500    0.0000 Br  0  0  0  0  0  0  0  0  0  0  0  0
    2.1434   -0.4125    0.0000 C   0  0  0  0  0  0  0  0  0  0  0  0
    2.8579   -0.0000    0.0000 Br  0  0  0  0  0  0  0  0  0  0  0  0
    1.4289   -0.0000    0.0000 C   0  0  0  0  0  0  0  0  0  0  0  0
    1.4289    0.8250    0.0000 Br  0  0  0  0  0  0  0  0  0  0  0  0
    0.7145   -0.4125    0.0000 C   0  0  0  0  0  0  0  0  0  0  0  0
    0.0000    0.0000    0.0000 Br  0  0  0  0  0  0  0  0  0  0  0  0
    0.7145   -1.2375    0.0000 C   0  0  0  0  0  0  0  0  0  0  0  0
    0.0000   -1.6500    0.0000 Br  0  0  0  0  0  0  0  0  0  0  0  0
    1.4289   -4.1250    0.0000 C   0  0  0  0  0  0  0  0  0  0  0  0
    0.7145   -3.7125    0.0000 Br  0  0  0  0  0  0  0  0  0  0  0  0
    1.4289   -4.9500    0.0000 C   0  0  0  0  0  0  0  0  0  0  0  0
    0.7145   -5.3625    0.0000 Br  0  0  0  0  0  0  0  0  0  0  0  0
    2.1434   -5.3625    0.0000 C   0  0  0  0  0  0  0  0  0  0  0  0
    2.1434   -6.1875    0.0000 Br  0  0  0  0  0  0  0  0  0  0  0  0
    2.8579   -4.9500    0.0000 C   0  0  0  0  0  0  0  0  0  0  0  0
    3.5724   -5.3625    0.0000 Br  0  0  0  0  0  0  0  0  0  0  0  0
  1  2  1  0  0  0  0
  3  2  1  0  0  0  0
  3  4  1  0  0  0  0
  4  5  1  0  0  0  0
  5  6  1  0  0  0  0
  7  6  2  0  0  0  0
  7  8  1  0  0  0  0
  9  7  1  0  0  0  0
  9 10  1  0  0  0  0
 11  9  2  0  0  0  0
 11 12  1  0  0  0  0
 13 11  1  0  0  0  0
 13 14  1  0  0  0  0
 15 13  2  0  0  0  0
  6 15  1  0  0  0  0
 15 16  1  0  0  0  0
 17  3  2  0  0  0  0
 17 18  1  0  0  0  0
 19 17  1  0  0  0  0
 19 20  1  0  0  0  0
 21 19  2  0  0  0  0
 21 22  1  0  0  0  0
 23 21  1  0  0  0  0
  2 23  2  0  0  0  0
 23 24  1  0  0  0  0
M  END
> <RowID>
1062

> <Original_SMILES>
BrC1C(CCC2=C(Br)C(Br)=C(Br)C(Br)=C2Br)=C(Br)C(Br)=C(Br)C=1Br

> <Canonical_QSARr>
BrC1C(CCC2=C(Br)C(Br)=C(Br)C(Br)=C2Br)=C(Br)C(Br)=C(Br)C=1Br

> <InChI_Code_QSARr>
InChI=1S/C14H4Br10/c15-5-3(6(16)10(20)13(23)9(5)19)1-2-4-7(17)11(21)14(24)12(22)8(4)18/h1-2H2

> <InChI Key_QSARr>
BZQKBFHEWDPQHD-UHFFFAOYSA-N

> <Salt_Solvent>


> <Salt_Solvent_ID>
0

> <Number of connected components>
1

$$$$
Molecule_1063
  Mrv2316 01072400032D          

 16 16  0  0  0  0            999 V2000
   -1.3126    3.3672    0.0000 O   0  0  0  0  0  0  0  0  0  0  0  0
   -1.3126    2.5422    0.0000 C   0  0  0  0  0  0  0  0  0  0  0  0
   -1.3126    1.7172    0.0000 N   0  0  0  0  0  0  0  0  0  0  0  0
   -0.5981    1.3047    0.0000 S   0  0  0  0  0  0  0  0  0  0  0  0
   -1.0106    0.5902    0.0000 O   0  0  0  0  0  0  0  0  0  0  0  0
   -0.1856    2.0192    0.0000 O   0  0  0  0  0  0  0  0  0  0  0  0
    0.1164    0.8922    0.0000 C   0  0  0  0  0  0  0  0  0  0  0  0
    0.1164    0.0672    0.0000 C   0  0  0  0  0  0  0  0  0  0  0  0
    0.8309   -0.3453    0.0000 C   0  0  0  0  0  0  0  0  0  0  0  0
    1.5453    0.0672    0.0000 C   0  0  0  0  0  0  0  0  0  0  0  0
    1.5453    0.8922    0.0000 C   0  0  0  0  0  0  0  0  0  0  0  0
    0.8309    1.3047    0.0000 C   0  0  0  0  0  0  0  0  0  0  0  0
    0.8309    2.1297    0.0000 C   0  0  0  0  0  0  0  0  0  0  0  0
    0.8309    2.9547    0.0000 F   0  0  0  0  0  0  0  0  0  0  0  0
    0.0462    2.3846    0.0000 F   0  0  0  0  0  0  0  0  0  0  0  0
    1.6559    2.1297    0.0000 F   0  0  0  0  0  0  0  0  0  0  0  0
  1  2  2  0  0  0  0
  2  3  2  0  0  0  0
  3  4  1  0  0  0  0
  4  5  2  0  0  0  0
  4  6  2  0  0  0  0
  4  7  1  0  0  0  0
  8  7  2  0  0  0  0
  9  8  1  0  0  0  0
 10  9  2  0  0  0  0
 11 10  1  0  0  0  0
 12 11  2  0  0  0  0
  7 12  1  0  0  0  0
 12 13  1  0  0  0  0
 13 14  1  0  0  0  0
 13 15  1  0  0  0  0
 13 16  1  0  0  0  0
M  END
> <RowID>
1063

> <Original_SMILES>
O=C=NS(=O)(=O)C1=CC=CC=C1C(F)(F)F

> <Canonical_QSARr>
O=C=NS(=O)(=O)C1=CC=CC=C1C(F)(F)F

> <InChI_Code_QSARr>
InChI=1S/C8H4F3NO3S/c9-8(10,11)6-3-1-2-4-7(6)16(14,15)12-5-13/h1-4H

> <InChI Key_QSARr>
QQYWUZHDPAYMOO-UHFFFAOYSA-N

> <Salt_Solvent>


> <Salt_Solvent_ID>
0

> <Number of connected components>
1

$$$$
Molecule_1065
  Mrv2316 01072400032D          

 34 33  0  0  0  0            999 V2000
    7.1447  -20.3447    0.0000 C   0  0  0  0  0  0  0  0  0  0  0  0
    7.1447  -19.5197    0.0000 O   0  0  0  0  0  0  0  0  0  0  0  0
    6.4302  -19.1072    0.0000 C   0  0  0  0  0  0  0  0  0  0  0  0
    6.4302  -18.2822    0.0000 C   0  0  0  0  0  0  0  0  0  0  0  0
    5.7158  -17.8697    0.0000 O   0  0  0  0  0  0  0  0  0  0  0  0
    5.7158  -17.0447    0.0000 C   0  0  0  0  0  0  0  0  0  0  0  0
    5.0013  -16.6322    0.0000 C   0  0  0  0  0  0  0  0  0  0  0  0
    5.0013  -15.8072    0.0000 O   0  0  0  0  0  0  0  0  0  0  0  0
    4.2868  -15.3947    0.0000 C   0  0  0  0  0  0  0  0  0  0  0  0
    4.2868  -14.5697    0.0000 C   0  0  0  0  0  0  0  0  0  0  0  0
    3.5724  -14.1572    0.0000 O   0  0  0  0  0  0  0  0  0  0  0  0
    3.5724  -13.3322    0.0000 B   0  0  0  0  0  0  0  0  0  0  0  0
    2.8579  -12.9197    0.0000 O   0  0  0  0  0  0  0  0  0  0  0  0
    2.8579  -12.0947    0.0000 C   0  0  0  0  0  0  0  0  0  0  0  0
    2.1434  -11.6822    0.0000 C   0  0  0  0  0  0  0  0  0  0  0  0
    2.1434  -10.8572    0.0000 O   0  0  0  0  0  0  0  0  0  0  0  0
    1.4289  -10.4447    0.0000 C   0  0  0  0  0  0  0  0  0  0  0  0
    1.4289   -9.6197    0.0000 C   0  0  0  0  0  0  0  0  0  0  0  0
    0.7145   -9.2072    0.0000 O   0  0  0  0  0  0  0  0  0  0  0  0
    0.7145   -8.3822    0.0000 C   0  0  0  0  0  0  0  0  0  0  0  0
    0.0000   -7.9697    0.0000 C   0  0  0  0  0  0  0  0  0  0  0  0
    0.0000   -7.1447    0.0000 O   0  0  0  0  0  0  0  0  0  0  0  0
   -0.7145   -6.7322    0.0000 C   0  0  0  0  0  0  0  0  0  0  0  0
    4.2868  -12.9197    0.0000 O   0  0  0  0  0  0  0  0  0  0  0  0
    4.2868  -12.0947    0.0000 C   0  0  0  0  0  0  0  0  0  0  0  0
    5.0013  -11.6822    0.0000 C   0  0  0  0  0  0  0  0  0  0  0  0
    5.0013  -10.8572    0.0000 O   0  0  0  0  0  0  0  0  0  0  0  0
    5.7158  -10.4447    0.0000 C   0  0  0  0  0  0  0  0  0  0  0  0
    5.7158   -9.6197    0.0000 C   0  0  0  0  0  0  0  0  0  0  0  0
    6.4302   -9.2072    0.0000 O   0  0  0  0  0  0  0  0  0  0  0  0
    6.4302   -8.3822    0.0000 C   0  0  0  0  0  0  0  0  0  0  0  0
    7.1447   -7.9697    0.0000 C   0  0  0  0  0  0  0  0  0  0  0  0
    7.1447   -7.1447    0.0000 O   0  0  0  0  0  0  0  0  0  0  0  0
    7.8592   -6.7322    0.0000 C   0  0  0  0  0  0  0  0  0  0  0  0
  1  2  1  0  0  0  0
  2  3  1  0  0  0  0
  3  4  1  0  0  0  0
  4  5  1  0  0  0  0
  5  6  1  0  0  0  0
  6  7  1  0  0  0  0
  7  8  1  0  0  0  0
  8  9  1  0  0  0  0
  9 10  1  0  0  0  0
 10 11  1  0  0  0  0
 11 12  1  0  0  0  0
 12 13  1  0  0  0  0
 13 14  1  0  0  0  0
 14 15  1  0  0  0  0
 15 16  1  0  0  0  0
 16 17  1  0  0  0  0
 17 18  1  0  0  0  0
 18 19  1  0  0  0  0
 19 20  1  0  0  0  0
 20 21  1  0  0  0  0
 21 22  1  0  0  0  0
 22 23  1  0  0  0  0
 12 24  1  0  0  0  0
 24 25  1  0  0  0  0
 25 26  1  0  0  0  0
 26 27  1  0  0  0  0
 27 28  1  0  0  0  0
 28 29  1  0  0  0  0
 29 30  1  0  0  0  0
 30 31  1  0  0  0  0
 31 32  1  0  0  0  0
 32 33  1  0  0  0  0
 33 34  1  0  0  0  0
M  END
> <RowID>
1065

> <Original_SMILES>
COCCOCCOCCOB(OCCOCCOCCOC)OCCOCCOCCOC

> <Canonical_QSARr>
COCCOCCOCCOB(OCCOCCOCCOC)OCCOCCOCCOC

> <InChI_Code_QSARr>
InChI=1S/C21H45BO12/c1-23-4-7-26-10-13-29-16-19-32-22(33-20-17-30-14-11-27-8-5-24-2)34-21-18-31-15-12-28-9-6-25-3/h4-21H2,1-3H3

> <InChI Key_QSARr>
BYRJZJXBVKUYFH-UHFFFAOYSA-N

> <Salt_Solvent>


> <Salt_Solvent_ID>
0

> <Number of connected components>
1

$$$$
Molecule_1068
  Mrv2316 01072400032D          

 15 15  0  0  0  0            999 V2000
    2.1434   -5.3075    0.0000 C   0  0  0  0  0  0  0  0  0  0  0  0
    2.8579   -5.7200    0.0000 C   0  0  0  0  0  0  0  0  0  0  0  0
    3.5724   -5.3075    0.0000 C   0  0  0  0  0  0  0  0  0  0  0  0
    4.2868   -5.7200    0.0000 C   0  0  0  0  0  0  0  0  0  0  0  0
    4.2868   -6.5450    0.0000 O   0  0  0  0  0  0  0  0  0  0  0  0
    5.0013   -5.3075    0.0000 O   0  0  0  0  0  0  0  0  0  0  0  0
    5.7158   -5.7200    0.0000 C   0  0  0  0  0  0  0  0  0  0  0  0
    6.4302   -5.3075    0.0000 C   0  0  0  0  0  0  0  0  0  0  0  0
    7.1447   -5.7200    0.0000 C   0  0  0  0  0  0  0  0  0  0  0  0
    7.8592   -5.3075    0.0000 C   0  0  0  0  0  0  0  0  0  0  0  0
    8.5737   -5.7200    0.0000 C   0  0  0  0  0  0  0  0  0  0  0  0
    9.2881   -5.3075    0.0000 C   0  0  0  0  0  0  0  0  0  0  0  0
    9.2881   -4.4825    0.0000 C   0  0  0  0  0  0  0  0  0  0  0  0
    8.5737   -4.0700    0.0000 C   0  0  0  0  0  0  0  0  0  0  0  0
    7.8592   -4.4825    0.0000 C   0  0  0  0  0  0  0  0  0  0  0  0
  1  2  1  0  0  0  0
  2  3  1  0  0  0  0
  3  4  1  0  0  0  0
  4  5  2  0  0  0  0
  4  6  1  0  0  0  0
  6  7  1  0  0  0  0
  8  7  1  4  0  0  0
  8  9  2  0  0  0  0
  9 10  1  0  0  0  0
 11 10  1  0  0  0  0
 12 11  2  0  0  0  0
 13 12  1  0  0  0  0
 14 13  2  0  0  0  0
 15 14  1  0  0  0  0
 10 15  2  0  0  0  0
M  END
> <RowID>
1068

> <Original_SMILES>
CCCC(=O)OCC=CC1C=CC=CC=1

> <Canonical_QSARr>
CCCC(=O)OCC=CC1C=CC=CC=1

> <InChI_Code_QSARr>
InChI=1S/C13H16O2/c1-2-7-13(14)15-11-6-10-12-8-4-3-5-9-12/h3-6,8-10H,2,7,11H2,1H3

> <InChI Key_QSARr>
YZYPQKZWNXANRB-UHFFFAOYSA-N

> <Salt_Solvent>


> <Salt_Solvent_ID>
0

> <Number of connected components>
1

$$$$
Molecule_1069
  Mrv2316 01072400032D          

 11 11  0  0  0  0            999 V2000
    2.5981   -1.2000    0.0000 N   0  0  0  0  0  0  0  0  0  0  0  0
    1.8836   -0.7875    0.0000 C   0  0  0  0  0  0  0  0  0  0  0  0
    1.8836    0.0375    0.0000 C   0  0  0  0  0  0  0  0  0  0  0  0
    1.1691    0.4500    0.0000 C   0  0  0  0  0  0  0  0  0  0  0  0
    1.1691    1.2750    0.0000 S   0  0  0  0  0  0  0  0  0  0  0  0
    1.1691    2.1000    0.0000 O   0  0  0  0  0  0  0  0  0  0  0  0
    1.9941    1.2750    0.0000 O   0  0  0  0  0  0  0  0  0  0  0  0
    0.3441    1.2750    0.0000 O   0  0  0  0  0  0  0  0  0  0  0  0
    0.4547    0.0375    0.0000 C   0  0  0  0  0  0  0  0  0  0  0  0
    0.4547   -0.7875    0.0000 C   0  0  0  0  0  0  0  0  0  0  0  0
    1.1691   -1.2000    0.0000 C   0  0  0  0  0  0  0  0  0  0  0  0
  1  2  1  0  0  0  0
  3  2  2  0  0  0  0
  4  3  1  0  0  0  0
  4  5  1  0  0  0  0
  5  6  1  0  0  0  0
  5  7  2  0  0  0  0
  5  8  2  0  0  0  0
  9  4  2  0  0  0  0
 10  9  1  0  0  0  0
 11 10  2  0  0  0  0
  2 11  1  0  0  0  0
M  END
> <RowID>
1069

> <Original_SMILES>
NC1=CC(=CC=C1)S(O)(=O)=O

> <Canonical_QSARr>
NC1=CC(=CC=C1)S(O)(=O)=O

> <InChI_Code_QSARr>
InChI=1S/C6H7NO3S/c7-5-2-1-3-6(4-5)11(8,9)10/h1-4H,7H2,(H,8,9,10)

> <InChI Key_QSARr>
ZAJAQTYSTDTMCU-UHFFFAOYSA-N

> <Salt_Solvent>


> <Salt_Solvent_ID>
0

> <Number of connected components>
1

$$$$
Molecule_1070
  Mrv2316 01072400032D          

 18 19  0  0  0  0            999 V2000
    5.3585   -3.0938    0.0000 C   0  0  0  0  0  0  0  0  0  0  0  0
    5.3585   -2.2688    0.0000 O   0  0  0  0  0  0  0  0  0  0  0  0
    4.6441   -1.8563    0.0000 C   0  0  0  0  0  0  0  0  0  0  0  0
    4.6441   -1.0312    0.0000 O   0  0  0  0  0  0  0  0  0  0  0  0
    3.9296   -2.2688    0.0000 C   0  0  0  0  0  0  0  0  0  0  0  0
    3.9296   -3.0938    0.0000 C   0  0  0  0  0  0  0  0  0  0  0  0
    3.2151   -3.5063    0.0000 C   0  0  0  0  0  0  0  0  0  0  0  0
    2.5006   -3.0938    0.0000 C   0  0  0  0  0  0  0  0  0  0  0  0
    2.5006   -2.2688    0.0000 C   0  0  0  0  0  0  0  0  0  0  0  0
    3.2151   -1.8563    0.0000 C   0  0  0  0  0  0  0  0  0  0  0  0
    3.2151   -1.0313    0.0000 C   0  0  0  0  0  0  0  0  0  0  0  0
    3.9296   -0.6188    0.0000 O   0  0  0  0  0  0  0  0  0  0  0  0
    2.5006   -0.6188    0.0000 C   0  0  0  0  0  0  0  0  0  0  0  0
    2.5006    0.2063    0.0000 C   0  0  0  0  0  0  0  0  0  0  0  0
    1.7862    0.6187    0.0000 C   0  0  0  0  0  0  0  0  0  0  0  0
    1.0717    0.2062    0.0000 C   0  0  0  0  0  0  0  0  0  0  0  0
    1.0717   -0.6187    0.0000 C   0  0  0  0  0  0  0  0  0  0  0  0
    1.7862   -1.0313    0.0000 C   0  0  0  0  0  0  0  0  0  0  0  0
  1  2  1  0  0  0  0
  2  3  1  0  0  0  0
  3  4  2  0  0  0  0
  3  5  1  0  0  0  0
  6  5  1  0  0  0  0
  7  6  2  0  0  0  0
  8  7  1  0  0  0  0
  9  8  2  0  0  0  0
 10  9  1  0  0  0  0
  5 10  2  0  0  0  0
 10 11  1  0  0  0  0
 11 12  2  0  0  0  0
 11 13  1  0  0  0  0
 14 13  1  0  0  0  0
 15 14  2  0  0  0  0
 16 15  1  0  0  0  0
 17 16  2  0  0  0  0
 18 17  1  0  0  0  0
 13 18  2  0  0  0  0
M  END
> <RowID>
1070

> <Original_SMILES>
COC(=O)C1C=CC=CC=1C(=O)C1C=CC=CC=1

> <Canonical_QSARr>
COC(=O)C1C=CC=CC=1C(=O)C1C=CC=CC=1

> <InChI_Code_QSARr>
InChI=1S/C15H12O3/c1-18-15(17)13-10-6-5-9-12(13)14(16)11-7-3-2-4-8-11/h2-10H,1H3

> <InChI Key_QSARr>
NQSMEZJWJJVYOI-UHFFFAOYSA-N

> <Salt_Solvent>


> <Salt_Solvent_ID>
0

> <Number of connected components>
1

$$$$
Molecule_1072
  Mrv2316 01072400032D          

 38 37  0  0  0  0            999 V2000
   19.6110   12.1469    0.0000 C   0  0  0  0  0  0  0  0  0  0  0  0
   20.3255   12.5594    0.0000 C   0  0  0  0  0  0  0  0  0  0  0  0
   21.0399   12.1469    0.0000 C   0  0  0  0  0  0  0  0  0  0  0  0
   21.7544   12.5594    0.0000 C   0  0  0  0  0  0  0  0  0  0  0  0
   22.4689   12.1469    0.0000 C   0  0  0  0  0  0  0  0  0  0  0  0
   23.1834   12.5594    0.0000 C   0  0  0  0  0  0  0  0  0  0  0  0
   23.8978   12.1469    0.0000 C   0  0  0  0  0  0  0  0  0  0  0  0
   24.6123   12.5594    0.0000 C   0  0  0  0  0  0  0  0  0  0  0  0
   25.3268   12.1469    0.0000 C   0  0  0  0  0  0  0  0  0  0  0  0
   26.0412   12.5594    0.0000 C   0  0  0  0  0  0  0  0  0  0  0  0
   26.7557   12.1469    0.0000 C   0  0  0  0  0  0  0  0  0  0  0  0
   27.4702   12.5594    0.0000 C   0  0  0  0  0  0  0  0  0  0  0  0
   28.1847   12.1469    0.0000 C   0  0  0  0  0  0  0  0  0  0  0  0
   28.8991   12.5594    0.0000 C   0  0  0  0  0  0  0  0  0  0  0  0
   29.6136   12.1469    0.0000 C   0  0  0  0  0  0  0  0  0  0  0  0
   30.3281   12.5594    0.0000 C   0  0  0  0  0  0  0  0  0  0  0  0
   31.0425   12.1469    0.0000 C   0  0  0  0  0  0  0  0  0  0  0  0
   31.7570   12.5594    0.0000 C   0  0  0  0  0  0  0  0  0  0  0  0
   32.4715   12.1469    0.0000 S   0  0  0  0  0  0  0  0  0  0  0  0
   33.1859   12.5594    0.0000 S   0  0  0  0  0  0  0  0  0  0  0  0
   33.9004   12.1469    0.0000 C   0  0  0  0  0  0  0  0  0  0  0  0
   34.6149   12.5594    0.0000 C   0  0  0  0  0  0  0  0  0  0  0  0
   35.3294   12.1469    0.0000 C   0  0  0  0  0  0  0  0  0  0  0  0
   36.0438   12.5594    0.0000 C   0  0  0  0  0  0  0  0  0  0  0  0
   36.7583   12.1469    0.0000 C   0  0  0  0  0  0  0  0  0  0  0  0
   37.4728   12.5594    0.0000 C   0  0  0  0  0  0  0  0  0  0  0  0
   38.1872   12.1469    0.0000 C   0  0  0  0  0  0  0  0  0  0  0  0
   38.9017   12.5594    0.0000 C   0  0  0  0  0  0  0  0  0  0  0  0
   39.6162   12.1469    0.0000 C   0  0  0  0  0  0  0  0  0  0  0  0
   40.3307   12.5594    0.0000 C   0  0  0  0  0  0  0  0  0  0  0  0
   41.0451   12.1469    0.0000 C   0  0  0  0  0  0  0  0  0  0  0  0
   41.7596   12.5594    0.0000 C   0  0  0  0  0  0  0  0  0  0  0  0
   42.4741   12.1469    0.0000 C   0  0  0  0  0  0  0  0  0  0  0  0
   43.1885   12.5594    0.0000 C   0  0  0  0  0  0  0  0  0  0  0  0
   43.9030   12.1469    0.0000 C   0  0  0  0  0  0  0  0  0  0  0  0
   44.6175   12.5594    0.0000 C   0  0  0  0  0  0  0  0  0  0  0  0
   45.3320   12.1469    0.0000 C   0  0  0  0  0  0  0  0  0  0  0  0
   46.0464   12.5594    0.0000 C   0  0  0  0  0  0  0  0  0  0  0  0
  1  2  1  0  0  0  0
  2  3  1  0  0  0  0
  3  4  1  0  0  0  0
  4  5  1  0  0  0  0
  5  6  1  0  0  0  0
  6  7  1  0  0  0  0
  7  8  1  0  0  0  0
  8  9  1  0  0  0  0
  9 10  1  0  0  0  0
 10 11  1  0  0  0  0
 11 12  1  0  0  0  0
 12 13  1  0  0  0  0
 13 14  1  0  0  0  0
 14 15  1  0  0  0  0
 15 16  1  0  0  0  0
 16 17  1  0  0  0  0
 17 18  1  0  0  0  0
 18 19  1  0  0  0  0
 19 20  1  0  0  0  0
 20 21  1  0  0  0  0
 21 22  1  0  0  0  0
 22 23  1  0  0  0  0
 23 24  1  0  0  0  0
 24 25  1  0  0  0  0
 25 26  1  0  0  0  0
 26 27  1  0  0  0  0
 27 28  1  0  0  0  0
 28 29  1  0  0  0  0
 29 30  1  0  0  0  0
 30 31  1  0  0  0  0
 31 32  1  0  0  0  0
 32 33  1  0  0  0  0
 33 34  1  0  0  0  0
 34 35  1  0  0  0  0
 35 36  1  0  0  0  0
 36 37  1  0  0  0  0
 37 38  1  0  0  0  0
M  END
> <RowID>
1072

> <Original_SMILES>
CCCCCCCCCCCCCCCCCCSSCCCCCCCCCCCCCCCCCC

> <Canonical_QSARr>
CCCCCCCCCCCCCCCCCCSSCCCCCCCCCCCCCCCCCC

> <InChI_Code_QSARr>
InChI=1S/C36H74S2/c1-3-5-7-9-11-13-15-17-19-21-23-25-27-29-31-33-35-37-38-36-34-32-30-28-26-24-22-20-18-16-14-12-10-8-6-4-2/h3-36H2,1-2H3

> <InChI Key_QSARr>
MQQKTNDBASEZSD-UHFFFAOYSA-N

> <Salt_Solvent>


> <Salt_Solvent_ID>
0

> <Number of connected components>
1

$$$$
Molecule_1073
  Mrv2316 01072400032D          

 18 17  0  0  0  0            999 V2000
    7.9480    5.4138    0.0000 C   0  0  0  0  0  0  0  0  0  0  0  0
    8.6625    5.0013    0.0000 C   0  0  0  0  0  0  0  0  0  0  0  0
    9.3770    5.4138    0.0000 C   0  0  0  0  0  0  0  0  0  0  0  0
   10.0915    5.0013    0.0000 C   0  0  0  0  0  0  0  0  0  0  0  0
   10.8059    5.4138    0.0000 C   0  0  0  0  0  0  0  0  0  0  0  0
   11.5204    5.0013    0.0000 C   0  0  0  0  0  0  0  0  0  0  0  0
   12.2349    5.4138    0.0000 C   0  0  0  0  0  0  0  0  0  0  0  0
   12.9493    5.0013    0.0000 C   0  0  0  0  0  0  0  0  0  0  0  0
   13.6638    5.4138    0.0000 C   0  0  0  0  0  0  0  0  0  0  0  0
   14.3783    5.0013    0.0000 C   0  0  0  0  0  0  0  0  0  0  0  0
   15.0927    5.4138    0.0000 C   0  0  0  0  0  0  0  0  0  0  0  0
   15.8072    5.0013    0.0000 C   0  0  0  0  0  0  0  0  0  0  0  0
   16.5217    5.4138    0.0000 C   0  0  0  0  0  0  0  0  0  0  0  0
   17.2362    5.0013    0.0000 C   0  0  0  0  0  0  0  0  0  0  0  0
   17.9506    5.4138    0.0000 C   0  0  0  0  0  0  0  0  0  0  0  0
   18.6651    5.0013    0.0000 C   0  0  0  0  0  0  0  0  0  0  0  0
   19.3796    5.4138    0.0000 O   0  0  0  0  0  0  0  0  0  0  0  0
   18.6651    4.1763    0.0000 O   0  0  0  0  0  0  0  0  0  0  0  0
  1  2  1  0  0  0  0
  2  3  1  0  0  0  0
  3  4  1  0  0  0  0
  4  5  1  0  0  0  0
  5  6  1  0  0  0  0
  6  7  1  0  0  0  0
  7  8  1  0  0  0  0
  8  9  1  0  0  0  0
  9 10  1  0  0  0  0
 10 11  1  0  0  0  0
 11 12  1  0  0  0  0
 12 13  1  0  0  0  0
 13 14  1  0  0  0  0
 14 15  1  0  0  0  0
 15 16  1  0  0  0  0
 16 17  1  0  0  0  0
 16 18  2  0  0  0  0
M  END
> <RowID>
1073

> <Original_SMILES>
CCCCCCCCCCCCCCCC(O)=O

> <Canonical_QSARr>
CCCCCCCCCCCCCCCC(O)=O

> <InChI_Code_QSARr>
InChI=1S/C16H32O2/c1-2-3-4-5-6-7-8-9-10-11-12-13-14-15-16(17)18/h2-15H2,1H3,(H,17,18)

> <InChI Key_QSARr>
IPCSVZSSVZVIGE-UHFFFAOYSA-N

> <Salt_Solvent>


> <Salt_Solvent_ID>
0

> <Number of connected components>
1

$$$$
Molecule_1074
  Mrv2316 01072400032D          

 34 39  0  0  0  0            999 V2000
    4.2868   -9.9000    0.0000 N   0  0  0  0  0  0  0  0  0  0  0  0
    4.2868   -9.0750    0.0000 C   0  0  0  0  0  0  0  0  0  0  0  0
    5.0013   -8.6625    0.0000 C   0  0  0  0  0  0  0  0  0  0  0  0
    5.0013   -7.8375    0.0000 C   0  0  0  0  0  0  0  0  0  0  0  0
    4.2868   -7.4250    0.0000 C   0  0  0  0  0  0  0  0  0  0  0  0
    4.2868   -6.6000    0.0000 C   0  0  0  0  0  0  0  0  0  0  0  0
    3.5724   -6.1875    0.0000 C   0  0  0  0  0  0  0  0  0  0  0  0
    3.5724   -5.3625    0.0000 C   0  0  0  0  0  0  0  0  0  0  0  0
    4.2868   -4.9500    0.0000 C   0  0  0  0  0  0  0  0  0  0  0  0
    4.2868   -4.1250    0.0000 N   0  0  0  0  0  0  0  0  0  0  0  0
    5.0013   -5.3625    0.0000 C   0  0  0  0  0  0  0  0  0  0  0  0
    5.0013   -6.1875    0.0000 C   0  0  0  0  0  0  0  0  0  0  0  0
    5.7158   -6.6000    0.0000 C   0  0  0  0  0  0  0  0  0  0  0  0
    5.7158   -7.4250    0.0000 O   0  0  0  0  0  0  0  0  0  0  0  0
    6.4302   -6.1875    0.0000 C   0  0  0  0  0  0  0  0  0  0  0  0
    7.1447   -6.6000    0.0000 C   0  0  0  0  0  0  0  0  0  0  0  0
    7.8592   -6.1875    0.0000 C   0  0  0  0  0  0  0  0  0  0  0  0
    7.8592   -5.3625    0.0000 C   0  0  0  0  0  0  0  0  0  0  0  0
    7.1447   -4.9500    0.0000 C   0  0  0  0  0  0  0  0  0  0  0  0
    6.4302   -5.3625    0.0000 C   0  0  0  0  0  0  0  0  0  0  0  0
    5.7158   -4.9500    0.0000 C   0  0  0  0  0  0  0  0  0  0  0  0
    5.7158   -4.1250    0.0000 O   0  0  0  0  0  0  0  0  0  0  0  0
    3.5724   -7.8375    0.0000 C   0  0  0  0  0  0  0  0  0  0  0  0
    3.5724   -8.6625    0.0000 C   0  0  0  0  0  0  0  0  0  0  0  0
    2.8579   -9.0750    0.0000 C   0  0  0  0  0  0  0  0  0  0  0  0
    2.8579   -9.9000    0.0000 O   0  0  0  0  0  0  0  0  0  0  0  0
    2.1434   -8.6625    0.0000 C   0  0  0  0  0  0  0  0  0  0  0  0
    1.4289   -9.0750    0.0000 C   0  0  0  0  0  0  0  0  0  0  0  0
    0.7145   -8.6625    0.0000 C   0  0  0  0  0  0  0  0  0  0  0  0
    0.7145   -7.8375    0.0000 C   0  0  0  0  0  0  0  0  0  0  0  0
    1.4289   -7.4250    0.0000 C   0  0  0  0  0  0  0  0  0  0  0  0
    2.1434   -7.8375    0.0000 C   0  0  0  0  0  0  0  0  0  0  0  0
    2.8579   -7.4250    0.0000 C   0  0  0  0  0  0  0  0  0  0  0  0
    2.8579   -6.6000    0.0000 O   0  0  0  0  0  0  0  0  0  0  0  0
  1  2  1  0  0  0  0
  3  2  2  0  0  0  0
  4  3  1  0  0  0  0
  5  4  2  0  0  0  0
  5  6  1  0  0  0  0
  7  6  2  0  0  0  0
  8  7  1  0  0  0  0
  9  8  2  0  0  0  0
  9 10  1  0  0  0  0
 11  9  1  0  0  0  0
 11 12  2  0  0  0  0
  6 12  1  0  0  0  0
 12 13  1  0  0  0  0
 13 14  2  0  0  0  0
 13 15  1  0  0  0  0
 16 15  2  0  0  0  0
 17 16  1  0  0  0  0
 18 17  2  0  0  0  0
 19 18  1  0  0  0  0
 20 19  2  0  0  0  0
 15 20  1  0  0  0  0
 20 21  1  0  0  0  0
 21 11  1  0  0  0  0
 21 22  2  0  0  0  0
 23  5  1  0  0  0  0
 23 24  2  0  0  0  0
  2 24  1  0  0  0  0
 24 25  1  0  0  0  0
 25 26  2  0  0  0  0
 25 27  1  0  0  0  0
 28 27  2  0  0  0  0
 29 28  1  0  0  0  0
 30 29  2  0  0  0  0
 31 30  1  0  0  0  0
 32 31  2  0  0  0  0
 27 32  1  0  0  0  0
 32 33  1  0  0  0  0
 33 23  1  0  0  0  0
 33 34  2  0  0  0  0
M  END
> <RowID>
1074

> <Original_SMILES>
NC1=CC=C(C2=C1C(=O)C1=CC=CC=C1C2=O)C1=CC=C(N)C2=C1C(=O)C1=CC=CC=C1C2=O

> <Canonical_QSARr>
NC1=CC=C(C2=C1C(=O)C1=CC=CC=C1C2=O)C1=CC=C(N)C2=C1C(=O)C1=CC=CC=C1C2=O

> <InChI_Code_QSARr>
InChI=1S/C28H16N2O4/c29-19-11-9-13(21-23(19)27(33)17-7-3-1-5-15(17)25(21)31)14-10-12-20(30)24-22(14)26(32)16-6-2-4-8-18(16)28(24)34/h1-12H,29-30H2

> <InChI Key_QSARr>
KNMQFBWXSICVQC-UHFFFAOYSA-N

> <Salt_Solvent>


> <Salt_Solvent_ID>
0

> <Number of connected components>
1

$$$$
Molecule_1075
  Mrv2316 01072400032D          

 13 12  0  0  0  0            999 V2000
   -0.1914   -2.3645    0.0000 O   0  0  0  0  0  0  0  0  0  0  0  0
    0.5230   -1.9520    0.0000 C   0  0  0  0  0  0  0  0  0  0  0  0
    1.2375   -2.3645    0.0000 O   0  0  0  0  0  0  0  0  0  0  0  0
    0.5230   -1.1270    0.0000 C   0  0  0  0  0  0  0  0  0  0  0  0
    1.2375   -0.7145    0.0000 C   0  0  0  0  0  0  0  0  0  0  0  0
    1.9520   -0.3020    0.0000 C   0  0  0  0  0  0  0  0  0  0  0  0
    2.6664   -0.7145    0.0000 C   0  0  0  0  0  0  0  0  0  0  0  0
    3.3809   -0.3020    0.0000 O   0  0  0  0  0  0  0  0  0  0  0  0
    2.6664   -1.5395    0.0000 O   0  0  0  0  0  0  0  0  0  0  0  0
    1.6500   -1.4290    0.0000 O   0  0  0  0  0  0  0  0  0  0  0  0
    0.8250   -0.0000    0.0000 C   0  0  0  0  0  0  0  0  0  0  0  0
    1.2375    0.7145    0.0000 O   0  0  0  0  0  0  0  0  0  0  0  0
   -0.0000   -0.0000    0.0000 O   0  0  0  0  0  0  0  0  0  0  0  0
  1  2  1  0  0  0  0
  2  3  2  0  0  0  0
  2  4  1  0  0  0  0
  4  5  1  0  0  0  0
  5  6  1  0  0  0  0
  6  7  1  0  0  0  0
  7  8  1  0  0  0  0
  7  9  2  0  0  0  0
  5 10  1  0  0  0  0
  5 11  1  0  0  0  0
 11 12  1  0  0  0  0
 11 13  2  0  0  0  0
M  END
> <RowID>
1075

> <Original_SMILES>
[K+].[K+].[K+].[O-]C(=O)C(O)(CC([O-])=O)CC([O-])=O

> <Canonical_QSARr>
OC(=O)C(O)(CC(O)=O)CC(O)=O

> <InChI_Code_QSARr>
InChI=1S/C6H8O7/c7-3(8)1-6(13,5(11)12)2-4(9)10/h13H,1-2H2,(H,7,8)(H,9,10)(H,11,12)

> <InChI Key_QSARr>
KRKNYBCHXYNGOX-UHFFFAOYSA-N

> <Salt_Solvent>
[K+]

> <Salt_Solvent_ID>
190

> <Number of connected components>
4

$$$$
Molecule_1076
  Mrv2316 01072400032D          

  9  9  0  0  0  0            999 V2000
   -0.1075    1.7274    0.0000 C   0  0  0  0  0  0  0  0  0  0  0  0
    0.4445    1.1143    0.0000 C   0  0  0  0  0  0  0  0  0  0  0  0
    0.9966    1.7274    0.0000 C   0  0  0  0  0  0  0  0  0  0  0  0
   -0.2229    0.6294    0.0000 N   0  0  0  0  0  0  0  0  0  0  0  0
    0.0320   -0.1553    0.0000 C   0  0  0  0  0  0  0  0  0  0  0  0
   -0.4529   -0.8227    0.0000 O   0  0  0  0  0  0  0  0  0  0  0  0
    0.8570   -0.1553    0.0000 N   0  0  0  0  0  0  0  0  0  0  0  0
    1.1120    0.6294    0.0000 C   0  0  0  0  0  0  0  0  0  0  0  0
    1.8966    0.8843    0.0000 O   0  0  0  0  0  0  0  0  0  0  0  0
  1  2  1  0  0  0  0
  2  3  1  0  0  0  0
  4  2  1  0  0  0  0
  5  4  1  0  0  0  0
  5  6  2  0  0  0  0
  7  5  1  0  0  0  0
  8  7  1  0  0  0  0
  2  8  1  0  0  0  0
  8  9  2  0  0  0  0
M  END
> <RowID>
1076

> <Original_SMILES>
CC1(C)NC(=O)NC1=O

> <Canonical_QSARr>
CC1(C)NC(=O)NC1=O

> <InChI_Code_QSARr>
InChI=1S/C5H8N2O2/c1-5(2)3(8)6-4(9)7-5/h1-2H3,(H2,6,7,8,9)

> <InChI Key_QSARr>
YIROYDNZEPTFOL-UHFFFAOYSA-N

> <Salt_Solvent>


> <Salt_Solvent_ID>
0

> <Number of connected components>
1

$$$$
Molecule_1077
  Mrv2316 01072400032D          

 18 18  0  0  0  0            999 V2000
    2.8976   -0.8938    0.0000 O   0  0  0  0  0  0  0  0  0  0  0  0
    2.1831   -0.4813    0.0000 S   0  0  0  0  0  0  0  0  0  0  0  0
    1.7706   -1.1957    0.0000 O   0  0  0  0  0  0  0  0  0  0  0  0
    2.5956    0.2332    0.0000 O   0  0  0  0  0  0  0  0  0  0  0  0
    1.4686   -0.0688    0.0000 C   0  0  0  0  0  0  0  0  0  0  0  0
    1.4686    0.7563    0.0000 C   0  0  0  0  0  0  0  0  0  0  0  0
    0.7542    1.1688    0.0000 C   0  0  0  0  0  0  0  0  0  0  0  0
    0.7542    1.9938    0.0000 C   0  0  0  0  0  0  0  0  0  0  0  0
    1.4686    2.4063    0.0000 O   0  0  0  0  0  0  0  0  0  0  0  0
    1.4686    3.2312    0.0000 C   0  0  0  0  0  0  0  0  0  0  0  0
    0.0397    2.4062    0.0000 O   0  0  0  0  0  0  0  0  0  0  0  0
    0.0397    0.7563    0.0000 C   0  0  0  0  0  0  0  0  0  0  0  0
    0.0397   -0.0687    0.0000 C   0  0  0  0  0  0  0  0  0  0  0  0
   -0.6748   -0.4812    0.0000 C   0  0  0  0  0  0  0  0  0  0  0  0
   -1.3892   -0.0687    0.0000 O   0  0  0  0  0  0  0  0  0  0  0  0
   -2.1037   -0.4812    0.0000 C   0  0  0  0  0  0  0  0  0  0  0  0
   -0.6748   -1.3062    0.0000 O   0  0  0  0  0  0  0  0  0  0  0  0
    0.7542   -0.4812    0.0000 C   0  0  0  0  0  0  0  0  0  0  0  0
  1  2  1  0  0  0  0
  2  3  2  0  0  0  0
  2  4  2  0  0  0  0
  2  5  1  0  0  0  0
  6  5  1  0  0  0  0
  7  6  2  0  0  0  0
  7  8  1  0  0  0  0
  8  9  1  0  0  0  0
  9 10  1  0  0  0  0
  8 11  2  0  0  0  0
 12  7  1  0  0  0  0
 13 12  2  0  0  0  0
 13 14  1  0  0  0  0
 14 15  1  0  0  0  0
 15 16  1  0  0  0  0
 14 17  2  0  0  0  0
 18 13  1  0  0  0  0
  5 18  2  0  0  0  0
M  END
> <RowID>
1077

> <Original_SMILES>
[Na+].COC(=O)C1=CC(=CC(=C1)C(=O)OC)S([O-])(=O)=O

> <Canonical_QSARr>
COC(=O)C1=CC(=CC(=C1)C(=O)OC)S(O)(=O)=O

> <InChI_Code_QSARr>
InChI=1S/C10H10O7S/c1-16-9(11)6-3-7(10(12)17-2)5-8(4-6)18(13,14)15/h3-5H,1-2H3,(H,13,14,15)

> <InChI Key_QSARr>
HTXMGVTWXZBZNC-UHFFFAOYSA-N

> <Salt_Solvent>
[Na+]

> <Salt_Solvent_ID>
110

> <Number of connected components>
2

$$$$
Molecule_1078
  Mrv2316 01072400032D          

 24 26  0  0  0  0            999 V2000
    0.2919   -6.2432    0.0000 C   0  0  0  0  0  0  0  0  0  0  0  0
    0.5469   -5.4586    0.0000 C   0  0  0  0  0  0  0  0  0  0  0  0
    1.3539   -5.2871    0.0000 C   0  0  0  0  0  0  0  0  0  0  0  0
    1.6088   -4.5024    0.0000 C   0  0  0  0  0  0  0  0  0  0  0  0
    1.0568   -3.8893    0.0000 C   0  0  0  0  0  0  0  0  0  0  0  0
    1.3117   -3.1047    0.0000 S   0  0  0  0  0  0  0  0  0  0  0  0
    2.0963   -3.3597    0.0000 O   0  0  0  0  0  0  0  0  0  0  0  0
    0.5271   -2.8498    0.0000 O   0  0  0  0  0  0  0  0  0  0  0  0
    1.5666   -2.3201    0.0000 O   0  0  0  0  0  0  0  0  0  0  0  0
    1.0146   -1.7070    0.0000 C   0  0  0  0  0  0  0  0  0  0  0  0
    1.2695   -0.9224    0.0000 C   0  0  0  0  0  0  0  0  0  0  0  0
    0.7846   -0.2549    0.0000 O   0  0  0  0  0  0  0  0  0  0  0  0
    1.2695    0.4125    0.0000 C   0  0  0  0  0  0  0  0  0  0  0  0
    1.0146    1.1971    0.0000 O   0  0  0  0  0  0  0  0  0  0  0  0
    0.2076    1.3686    0.0000 C   0  0  0  0  0  0  0  0  0  0  0  0
    2.0542    0.1576    0.0000 C   0  0  0  0  0  0  0  0  0  0  0  0
    2.8388    0.4125    0.0000 O   0  0  0  0  0  0  0  0  0  0  0  0
    3.3237   -0.2549    0.0000 C   0  0  0  0  0  0  0  0  0  0  0  0
    3.9368    0.2971    0.0000 C   0  0  0  0  0  0  0  0  0  0  0  0
    3.9368   -0.8070    0.0000 C   0  0  0  0  0  0  0  0  0  0  0  0
    2.8388   -0.9224    0.0000 O   0  0  0  0  0  0  0  0  0  0  0  0
    2.0542   -0.6674    0.0000 C   0  0  0  0  0  0  0  0  0  0  0  0
    0.2498   -4.0609    0.0000 C   0  0  0  0  0  0  0  0  0  0  0  0
   -0.0052   -4.8455    0.0000 C   0  0  0  0  0  0  0  0  0  0  0  0
  1  2  1  0  0  0  0
  3  2  1  0  0  0  0
  4  3  2  0  0  0  0
  5  4  1  0  0  0  0
  5  6  1  0  0  0  0
  6  7  2  0  0  0  0
  6  8  2  0  0  0  0
  6  9  1  0  0  0  0
  9 10  1  0  0  0  0
 10 11  1  0  0  0  0
 12 11  1  0  0  0  0
 13 12  1  0  0  0  0
 13 14  1  0  0  0  0
 14 15  1  0  0  0  0
 16 13  1  0  0  0  0
 16 17  1  0  0  0  0
 17 18  1  0  0  0  0
 18 19  1  0  0  0  0
 18 20  1  0  0  0  0
 18 21  1  0  0  0  0
 21 22  1  0  0  0  0
 11 22  1  0  0  0  0
 22 16  1  0  0  0  0
 23  5  2  0  0  0  0
 24 23  1  0  0  0  0
  2 24  2  0  0  0  0
M  END
> <RowID>
1078

> <Original_SMILES>
CC1C=CC(=CC=1)S(=O)(=O)OCC1OC(OC)C2OC(C)(C)OC21

> <Canonical_QSARr>
CC1C=CC(=CC=1)S(=O)(=O)OCC1OC(OC)C2OC(C)(C)OC21

> <InChI_Code_QSARr>
InChI=1S/C16H22O7S/c1-10-5-7-11(8-6-10)24(17,18)20-9-12-13-14(15(19-4)21-12)23-16(2,3)22-13/h5-8,12-15H,9H2,1-4H3

> <InChI Key_QSARr>
IAPMZKRZMYQZSW-UHFFFAOYSA-N

> <Salt_Solvent>


> <Salt_Solvent_ID>
0

> <Number of connected components>
1

$$$$
Molecule_1079
  Mrv2316 01072400032D          

 30 29  0  0  0  0            999 V2000
  -10.1943    0.7145    0.0000 C   0  0  0  0  0  0  0  0  0  0  0  0
   -9.4799    0.3020    0.0000 N   0  3  0  0  0  0  0  0  0  0  0  0
   -8.7654   -0.1105    0.0000 C   0  0  0  0  0  0  0  0  0  0  0  0
   -8.0509    0.3020    0.0000 C   0  0  0  0  0  0  0  0  0  0  0  0
   -7.3364   -0.1105    0.0000 C   0  0  0  0  0  0  0  0  0  0  0  0
   -6.6220    0.3020    0.0000 N   0  3  0  0  0  0  0  0  0  0  0  0
   -5.9075    0.7145    0.0000 C   0  0  0  0  0  0  0  0  0  0  0  0
   -5.1930    0.3020    0.0000 C   0  0  0  0  0  0  0  0  0  0  0  0
   -4.4786    0.7145    0.0000 C   0  0  0  0  0  0  0  0  0  0  0  0
   -3.7641    0.3020    0.0000 N   0  0  0  0  0  0  0  0  0  0  0  0
   -3.0496    0.7145    0.0000 C   0  0  0  0  0  0  0  0  0  0  0  0
   -2.3351    0.3020    0.0000 C   0  0  0  0  0  0  0  0  0  0  0  0
   -1.6207    0.7145    0.0000 N   0  3  0  0  0  0  0  0  0  0  0  0
   -0.9062    1.1270    0.0000 C   0  0  0  0  0  0  0  0  0  0  0  0
   -0.1917    0.7145    0.0000 C   0  0  0  0  0  0  0  0  0  0  0  0
    0.5227    1.1270    0.0000 C   0  0  0  0  0  0  0  0  0  0  0  0
    1.2372    0.7145    0.0000 N   0  0  0  0  0  0  0  0  0  0  0  0
    1.9517    1.1270    0.0000 C   0  0  0  0  0  0  0  0  0  0  0  0
    2.6662    0.7145    0.0000 C   0  0  0  0  0  0  0  0  0  0  0  0
    3.3806    1.1270    0.0000 C   0  0  0  0  0  0  0  0  0  0  0  0
    2.6662   -0.1105    0.0000 C   0  0  0  0  0  0  0  0  0  0  0  0
    1.9517    1.9520    0.0000 O   0  0  0  0  0  0  0  0  0  0  0  0
   -1.2082    0.0001    0.0000 C   0  0  0  0  0  0  0  0  0  0  0  0
   -2.0332    1.4290    0.0000 C   0  0  0  0  0  0  0  0  0  0  0  0
   -3.0496    1.5395    0.0000 O   0  0  0  0  0  0  0  0  0  0  0  0
   -6.2095   -0.4124    0.0000 C   0  0  0  0  0  0  0  0  0  0  0  0
   -7.0345    1.0165    0.0000 C   0  0  0  0  0  0  0  0  0  0  0  0
   -8.0509    1.1270    0.0000 O   0  0  0  0  0  0  0  0  0  0  0  0
   -9.8924   -0.4124    0.0000 C   0  0  0  0  0  0  0  0  0  0  0  0
   -9.0674    1.0165    0.0000 C   0  0  0  0  0  0  0  0  0  0  0  0
  1  2  1  0  0  0  0
  2  3  1  0  0  0  0
  3  4  1  0  0  0  0
  4  5  1  0  0  0  0
  5  6  1  0  0  0  0
  6  7  1  0  0  0  0
  7  8  1  0  0  0  0
  8  9  1  0  0  0  0
  9 10  1  0  0  0  0
 10 11  1  0  0  0  0
 11 12  1  0  0  0  0
 12 13  1  0  0  0  0
 13 14  1  0  0  0  0
 14 15  1  0  0  0  0
 15 16  1  0  0  0  0
 16 17  1  0  0  0  0
 17 18  1  0  0  0  0
 18 19  1  0  0  0  0
 19 20  2  0  0  0  0
 19 21  1  0  0  0  0
 18 22  2  0  0  0  0
 13 23  1  0  0  0  0
 13 24  1  0  0  0  0
 11 25  2  0  0  0  0
  6 26  1  0  0  0  0
  6 27  1  0  0  0  0
  4 28  1  0  0  0  0
  2 29  1  0  0  0  0
  2 30  1  0  0  0  0
M  CHG  3   2   1   6   1  13   1
M  END
> <RowID>
1079

> <Original_SMILES>
[Cl-].[Cl-].[Cl-].C[N+](C)(C)CC(O)C[N+](C)(C)CCCNC(=O)C[N+](C)(C)CCCNC(=O)C(C)=C

> <Canonical_QSARr>
C[N+](C)(C)CC(O)C[N+](C)(C)CCCNC(=O)C[N+](C)(C)CCCNC(=O)C(C)=C

> <InChI_Code_QSARr>
InChI=1S/C22H46N5O3/c1-19(2)22(30)24-13-11-15-27(8,9)18-21(29)23-12-10-14-26(6,7)17-20(28)16-25(3,4)5/h20,28H,1,10-18H2,2-9H3/q+1/p+2

> <InChI Key_QSARr>
BBDUTQFBVZPZIS-UHFFFAOYSA-P

> <Salt_Solvent>
[Cl-]

> <Salt_Solvent_ID>
170

> <Number of connected components>
4

$$$$
Molecule_1080
  Mrv2316 01072400032D          

  2  1  0  0  0  0            999 V2000
    0.8250    0.0000    0.0000 C   0  0  0  0  0  0  0  0  0  0  0  0
    0.0000    0.0000    0.0000 N   0  0  0  0  0  0  0  0  0  0  0  0
  1  2  3  0  0  0  0
M  END
> <RowID>
1080

> <Original_SMILES>
[Fe+2].[Fe+2].[Fe+2].[Fe+3].[Fe+3].[Fe+3].[Fe+3].[C-]#N.[C-]#N.[C-]#N.[C-]#N.[C-]#N.[C-]#N.[C-]#N.[C-]#N.[C-]#N.[C-]#N.[C-]#N.[C-]#N.[C-]#N.[C-]#N.[C-]#N.[C-]#N.[C-]#N.[C-]#N

> <Canonical_QSARr>
C#N

> <InChI_Code_QSARr>
InChI=1S/CHN/c1-2/h1H

> <InChI Key_QSARr>
LELOWRISYMNNSU-UHFFFAOYSA-N

> <Salt_Solvent>
[Fe+2].[Fe+3]

> <Salt_Solvent_ID>
260

> <Number of connected components>
25

$$$$
Molecule_1081
  Mrv2316 01072400032D          

 11 10  0  0  0  0            999 V2000
    1.0461    3.9039    0.0000 C   0  0  0  0  0  0  0  0  0  0  0  0
    1.0461    3.0789    0.0000 C   0  0  0  0  0  0  0  0  0  0  0  0
    1.7605    2.6664    0.0000 C   0  0  0  0  0  0  0  0  0  0  0  0
    1.7605    1.8414    0.0000 C   0  0  0  0  0  0  0  0  0  0  0  0
    2.4750    1.4289    0.0000 C   0  0  0  0  0  0  0  0  0  0  0  0
    3.1895    1.8414    0.0000 C   0  0  0  0  0  0  0  0  0  0  0  0
    3.9039    1.4289    0.0000 O   0  0  0  0  0  0  0  0  0  0  0  0
    4.6184    1.8414    0.0000 C   0  0  0  0  0  0  0  0  0  0  0  0
    5.3329    1.4289    0.0000 C   0  0  0  0  0  0  0  0  0  0  0  0
    6.0474    1.8414    0.0000 C   0  0  0  0  0  0  0  0  0  0  0  0
    5.3329    0.6039    0.0000 C   0  0  0  0  0  0  0  0  0  0  0  0
  1  2  1  0  0  0  0
  3  2  1  4  0  0  0
  3  4  2  0  0  0  0
  4  5  1  0  0  0  0
  5  6  1  0  0  0  0
  6  7  1  0  0  0  0
  7  8  1  0  0  0  0
  8  9  1  0  0  0  0
  9 10  1  0  0  0  0
  9 11  2  0  0  0  0
M  END
> <RowID>
1081

> <Original_SMILES>
CCC=CCCOCC(C)=C

> <Canonical_QSARr>
CCC=CCCOCC(C)=C

> <InChI_Code_QSARr>
InChI=1S/C10H18O/c1-4-5-6-7-8-11-9-10(2)3/h5-6H,2,4,7-9H2,1,3H3

> <InChI Key_QSARr>
LIWYPQFTKLABSJ-UHFFFAOYSA-N

> <Salt_Solvent>


> <Salt_Solvent_ID>
0

> <Number of connected components>
1

$$$$
Molecule_1082
  Mrv2316 01072400032D          

 48 52  0  0  0  0            999 V2000
    6.0304    2.5385    0.0000 C   0  0  0  0  0  0  0  0  0  0  0  0
    5.2458    2.2835    0.0000 C   0  0  0  0  0  0  0  0  0  0  0  0
    4.9908    3.0682    0.0000 C   0  0  0  0  0  0  0  0  0  0  0  0
    5.5007    1.4989    0.0000 C   0  0  0  0  0  0  0  0  0  0  0  0
    4.4611    2.0286    0.0000 O   0  0  0  0  0  0  0  0  0  0  0  0
    4.2896    1.2216    0.0000 C   0  0  0  0  0  0  0  0  0  0  0  0
    4.9027    0.6696    0.0000 O   0  0  0  0  0  0  0  0  0  0  0  0
    3.5050    0.9667    0.0000 C   0  0  0  0  0  0  0  0  0  0  0  0
    3.3335    0.1597    0.0000 C   0  0  0  0  0  0  0  0  0  0  0  0
    2.5488   -0.0952    0.0000 C   0  0  0  0  0  0  0  0  0  0  0  0
    2.3773   -0.9022    0.0000 C   0  0  0  0  0  0  0  0  0  0  0  0
    1.5927   -1.1571    0.0000 C   0  0  0  0  0  0  0  0  0  0  0  0
    0.9796   -0.6051    0.0000 C   0  0  0  0  0  0  0  0  0  0  0  0
    0.1950   -0.8600    0.0000 N   0  0  0  0  0  0  0  0  0  0  0  0
   -0.4725   -0.3751    0.0000 C   0  0  0  0  0  0  0  0  0  0  0  0
   -0.4725    0.4499    0.0000 C   0  0  0  0  0  0  0  0  0  0  0  0
   -1.1869    0.8624    0.0000 C   0  0  0  0  0  0  0  0  0  0  0  0
    0.2420    0.8624    0.0000 C   0  0  0  0  0  0  0  0  0  0  0  0
   -1.1399   -0.8600    0.0000 C   0  0  0  0  0  0  0  0  0  0  0  0
   -1.9245   -0.6051    0.0000 C   0  0  0  0  0  0  0  0  0  0  0  0
   -2.5376   -1.1571    0.0000 O   0  0  0  0  0  0  0  0  0  0  0  0
   -2.0961    0.2019    0.0000 N   0  0  0  0  0  0  0  0  0  0  0  0
   -2.8807    0.4568    0.0000 C   0  0  0  0  0  0  0  0  0  0  0  0
   -3.0522    1.2638    0.0000 C   0  0  0  0  0  0  0  0  0  0  0  0
   -3.8368    1.5187    0.0000 C   0  0  0  0  0  0  0  0  0  0  0  0
   -4.4499    0.9667    0.0000 C   0  0  0  0  0  0  0  0  0  0  0  0
   -4.2784    0.1597    0.0000 C   0  0  0  0  0  0  0  0  0  0  0  0
   -3.4938   -0.0952    0.0000 C   0  0  0  0  0  0  0  0  0  0  0  0
   -0.8850   -1.6447    0.0000 C   0  0  0  0  0  0  0  0  0  0  0  0
   -1.3699   -2.3121    0.0000 C   0  0  0  0  0  0  0  0  0  0  0  0
   -2.1904   -2.2259    0.0000 C   0  0  0  0  0  0  0  0  0  0  0  0
   -2.6753   -2.8933    0.0000 C   0  0  0  0  0  0  0  0  0  0  0  0
   -2.3397   -3.6470    0.0000 C   0  0  0  0  0  0  0  0  0  0  0  0
   -1.5193   -3.7332    0.0000 C   0  0  0  0  0  0  0  0  0  0  0  0
   -1.0343   -3.0658    0.0000 C   0  0  0  0  0  0  0  0  0  0  0  0
   -0.0600   -1.6447    0.0000 C   0  0  0  0  0  0  0  0  0  0  0  0
    0.4250   -2.3121    0.0000 C   0  0  0  0  0  0  0  0  0  0  0  0
    0.0894   -3.0658    0.0000 C   0  0  0  0  0  0  0  0  0  0  0  0
    0.5743   -3.7332    0.0000 C   0  0  0  0  0  0  0  0  0  0  0  0
    1.3948   -3.6470    0.0000 C   0  0  0  0  0  0  0  0  0  0  0  0
    1.8797   -4.3144    0.0000 F   0  0  0  0  0  0  0  0  0  0  0  0
    1.7304   -2.8933    0.0000 C   0  0  0  0  0  0  0  0  0  0  0  0
    1.2454   -2.2259    0.0000 C   0  0  0  0  0  0  0  0  0  0  0  0
    2.9904   -1.4542    0.0000 O   0  0  0  0  0  0  0  0  0  0  0  0
    3.7750   -1.1993    0.0000 C   0  0  0  0  0  0  0  0  0  0  0  0
    3.8898   -2.0163    0.0000 C   0  0  0  0  0  0  0  0  0  0  0  0
    4.5995   -1.2281    0.0000 C   0  0  0  0  0  0  0  0  0  0  0  0
    3.9466   -0.3923    0.0000 O   0  0  0  0  0  0  0  0  0  0  0  0
  1  2  1  0  0  0  0
  2  3  1  0  0  0  0
  2  4  1  0  0  0  0
  2  5  1  0  0  0  0
  5  6  1  0  0  0  0
  6  7  2  0  0  0  0
  6  8  1  0  0  0  0
  8  9  1  0  0  0  0
 10  9  1  0  0  0  0
 11 10  1  0  0  0  0
 11 12  1  0  0  0  0
 12 13  1  0  0  0  0
 13 14  1  0  0  0  0
 15 14  1  0  0  0  0
 15 16  1  0  0  0  0
 16 17  1  0  0  0  0
 16 18  1  0  0  0  0
 19 15  2  0  0  0  0
 19 20  1  0  0  0  0
 20 21  2  0  0  0  0
 20 22  1  0  0  0  0
 22 23  1  0  0  0  0
 24 23  1  0  0  0  0
 25 24  2  0  0  0  0
 26 25  1  0  0  0  0
 27 26  2  0  0  0  0
 28 27  1  0  0  0  0
 23 28  2  0  0  0  0
 29 19  1  0  0  0  0
 29 30  1  0  0  0  0
 31 30  1  0  0  0  0
 32 31  2  0  0  0  0
 33 32  1  0  0  0  0
 34 33  2  0  0  0  0
 35 34  1  0  0  0  0
 30 35  2  0  0  0  0
 36 29  2  0  0  0  0
 14 36  1  0  0  0  0
 36 37  1  0  0  0  0
 38 37  2  0  0  0  0
 39 38  1  0  0  0  0
 40 39  2  0  0  0  0
 40 41  1  0  0  0  0
 42 40  1  0  0  0  0
 43 42  2  0  0  0  0
 37 43  1  0  0  0  0
 44 11  1  0  0  0  0
 45 44  1  0  0  0  0
 45 46  1  0  0  0  0
 45 47  1  0  0  0  0
 48 45  1  0  0  0  0
  9 48  1  0  0  0  0
M  END
> <RowID>
1082

> <Original_SMILES>
CC(C)(C)OC(=O)CC1CC(CCN2C(C(C)C)=C(C(=C2C2=CC=C(F)C=C2)C2C=CC=CC=2)C(=O)NC2C=CC=CC=2)OC(C)(C)O1

> <Canonical_QSARr>
CC(C)(C)OC(=O)CC1CC(CCN2C(C(C)C)=C(C(=C2C2=CC=C(F)C=C2)C2C=CC=CC=2)C(=O)NC2C=CC=CC=2)OC(C)(C)O1

> <InChI_Code_QSARr>
InChI=1S/C40H47FN2O5/c1-26(2)36-35(38(45)42-30-16-12-9-13-17-30)34(27-14-10-8-11-15-27)37(28-18-20-29(41)21-19-28)43(36)23-22-31-24-32(47-40(6,7)46-31)25-33(44)48-39(3,4)5/h8-21,26,31-32H,22-25H2,1-7H3,(H,42,45)

> <InChI Key_QSARr>
NPPZOMYSGNZDKY-UHFFFAOYSA-N

> <Salt_Solvent>


> <Salt_Solvent_ID>
0

> <Number of connected components>
1

$$$$
Molecule_1083
  Mrv2316 01072400032D          

 10 10  0  0  0  0            999 V2000
    0.7145   -2.0625    0.0000 O   0  0  0  0  0  0  0  0  0  0  0  0
    0.7145   -1.2375    0.0000 C   0  0  0  0  0  0  0  0  0  0  0  0
    1.4289   -0.8250    0.0000 C   0  0  0  0  0  0  0  0  0  0  0  0
    1.4289   -0.0000    0.0000 C   0  0  0  0  0  0  0  0  0  0  0  0
    0.7145    0.4125    0.0000 C   0  0  0  0  0  0  0  0  0  0  0  0
    0.7145    1.2375    0.0000 C   0  0  0  0  0  0  0  0  0  0  0  0
   -0.0000    1.6500    0.0000 O   0  0  0  0  0  0  0  0  0  0  0  0
    1.4289    1.6500    0.0000 O   0  0  0  0  0  0  0  0  0  0  0  0
   -0.0000   -0.0000    0.0000 C   0  0  0  0  0  0  0  0  0  0  0  0
   -0.0000   -0.8250    0.0000 C   0  0  0  0  0  0  0  0  0  0  0  0
  1  2  1  0  0  0  0
  3  2  1  0  0  0  0
  4  3  2  0  0  0  0
  5  4  1  0  0  0  0
  5  6  1  0  0  0  0
  6  7  1  0  0  0  0
  6  8  2  0  0  0  0
  9  5  2  0  0  0  0
 10  9  1  0  0  0  0
  2 10  2  0  0  0  0
M  END
> <RowID>
1083

> <Original_SMILES>
OC1C=CC(=CC=1)C(O)=O

> <Canonical_QSARr>
OC1C=CC(=CC=1)C(O)=O

> <InChI_Code_QSARr>
InChI=1S/C7H6O3/c8-6-3-1-5(2-4-6)7(9)10/h1-4,8H,(H,9,10)

> <InChI Key_QSARr>
FJKROLUGYXJWQN-UHFFFAOYSA-N

> <Salt_Solvent>


> <Salt_Solvent_ID>
0

> <Number of connected components>
1

$$$$
Molecule_1084
  Mrv2316 01072400032D          

 12 11  0  0  0  0            999 V2000
    2.9980    2.5559    0.0000 C   0  0  0  0  0  0  0  0  0  0  0  0
    3.7125    2.1434    0.0000 O   0  0  0  0  0  0  0  0  0  0  0  0
    4.4270    2.5559    0.0000 C   0  0  0  0  0  0  0  0  0  0  0  0
    4.4270    3.3809    0.0000 O   0  0  0  0  0  0  0  0  0  0  0  0
    5.1414    2.1434    0.0000 C   0  0  0  0  0  0  0  0  0  0  0  0
    5.1414    1.3184    0.0000 C   0  0  0  0  0  0  0  0  0  0  0  0
    5.8559    2.5559    0.0000 C   0  0  0  0  0  0  0  0  0  0  0  0
    6.5704    2.1434    0.0000 C   0  0  0  0  0  0  0  0  0  0  0  0
    7.2849    2.5559    0.0000 C   0  0  0  0  0  0  0  0  0  0  0  0
    7.2849    3.3809    0.0000 O   0  0  0  0  0  0  0  0  0  0  0  0
    7.9993    2.1434    0.0000 O   0  0  0  0  0  0  0  0  0  0  0  0
    8.7138    2.5559    0.0000 C   0  0  0  0  0  0  0  0  0  0  0  0
  1  2  1  0  0  0  0
  2  3  1  0  0  0  0
  3  4  2  0  0  0  0
  3  5  1  0  0  0  0
  5  6  1  0  0  0  0
  5  7  1  0  0  0  0
  7  8  1  0  0  0  0
  8  9  1  0  0  0  0
  9 10  2  0  0  0  0
  9 11  1  0  0  0  0
 11 12  1  0  0  0  0
M  END
> <RowID>
1084

> <Original_SMILES>
COC(=O)C(C)CCC(=O)OC

> <Canonical_QSARr>
COC(=O)C(C)CCC(=O)OC

> <InChI_Code_QSARr>
InChI=1S/C8H14O4/c1-6(8(10)12-3)4-5-7(9)11-2/h6H,4-5H2,1-3H3

> <InChI Key_QSARr>
ZWKKRUNHAVNSFW-UHFFFAOYSA-N

> <Salt_Solvent>


> <Salt_Solvent_ID>
0

> <Number of connected components>
1

$$$$
Molecule_1085
  Mrv2316 01072400032D          

 16 16  0  0  0  0            999 V2000
   -0.6278   -1.1905    0.0000 C   0  0  0  0  0  0  0  0  0  0  0  0
   -0.3456   -0.4153    0.0000 C   0  0  0  0  0  0  0  0  0  0  0  0
   -1.1581   -0.2720    0.0000 C   0  0  0  0  0  0  0  0  0  0  0  0
    0.3689   -0.8278    0.0000 C   0  0  0  0  0  0  0  0  0  0  0  0
    1.0834   -0.4153    0.0000 C   0  0  0  0  0  0  0  0  0  0  0  0
    1.7978   -0.8278    0.0000 N   0  0  0  0  0  0  0  0  0  0  0  0
    2.5123   -0.4153    0.0000 C   0  0  0  0  0  0  0  0  0  0  0  0
    3.2268   -0.0028    0.0000 O   0  0  0  0  0  0  0  0  0  0  0  0
    1.0834    0.4097    0.0000 C   0  0  0  0  0  0  0  0  0  0  0  0
    0.3689    0.8222    0.0000 C   0  0  0  0  0  0  0  0  0  0  0  0
    0.8992    1.4542    0.0000 C   0  0  0  0  0  0  0  0  0  0  0  0
   -0.1614    1.4542    0.0000 C   0  0  0  0  0  0  0  0  0  0  0  0
    0.1208    2.2294    0.0000 N   0  0  0  0  0  0  0  0  0  0  0  0
   -0.4095    2.8614    0.0000 C   0  0  0  0  0  0  0  0  0  0  0  0
   -0.9398    3.4934    0.0000 O   0  0  0  0  0  0  0  0  0  0  0  0
   -0.3456    0.4097    0.0000 C   0  0  0  0  0  0  0  0  0  0  0  0
  1  2  1  0  0  0  0
  2  3  1  0  0  0  0
  4  2  1  0  0  0  0
  5  4  1  0  0  0  0
  5  6  1  0  0  0  0
  6  7  2  0  0  0  0
  7  8  2  0  0  0  0
  9  5  1  0  0  0  0
 10  9  1  0  0  0  0
 10 11  1  0  0  0  0
 10 12  1  0  0  0  0
 12 13  1  0  0  0  0
 13 14  2  0  0  0  0
 14 15  2  0  0  0  0
 16 10  1  0  0  0  0
  2 16  1  0  0  0  0
M  END
> <RowID>
1085

> <Original_SMILES>
CC1(C)CC(CC(C)(C1)CN=C=O)N=C=O

> <Canonical_QSARr>
CC1(C)CC(CC(C)(C1)CN=C=O)N=C=O

> <InChI_Code_QSARr>
InChI=1S/C12H18N2O2/c1-11(2)4-10(14-9-16)5-12(3,6-11)7-13-8-15/h10H,4-7H2,1-3H3

> <InChI Key_QSARr>
NIMLQBUJDJZYEJ-UHFFFAOYSA-N

> <Salt_Solvent>


> <Salt_Solvent_ID>
0

> <Number of connected components>
1

$$$$
Molecule_1086
  Mrv2316 01072400032D          

 13 12  0  0  0  0            999 V2000
    2.9684    1.8414    0.0000 C   0  0  0  0  0  0  0  0  0  0  0  0
    2.2539    1.4289    0.0000 C   0  0  0  0  0  0  0  0  0  0  0  0
    1.5395    1.8414    0.0000 O   0  0  0  0  0  0  0  0  0  0  0  0
    0.8250    1.4289    0.0000 Si  0  0  0  0  0  0  0  0  0  0  0  0
    0.1105    1.0164    0.0000 O   0  0  0  0  0  0  0  0  0  0  0  0
   -0.6039    1.4289    0.0000 C   0  0  0  0  0  0  0  0  0  0  0  0
   -1.3184    1.0164    0.0000 C   0  0  0  0  0  0  0  0  0  0  0  0
    0.4125    2.1434    0.0000 O   0  0  0  0  0  0  0  0  0  0  0  0
   -0.4125    2.1434    0.0000 C   0  0  0  0  0  0  0  0  0  0  0  0
   -0.8250    2.8579    0.0000 C   0  0  0  0  0  0  0  0  0  0  0  0
    1.2375    0.7144    0.0000 O   0  0  0  0  0  0  0  0  0  0  0  0
    0.8250   -0.0000    0.0000 C   0  0  0  0  0  0  0  0  0  0  0  0
    0.0000   -0.0000    0.0000 C   0  0  0  0  0  0  0  0  0  0  0  0
  1  2  1  0  0  0  0
  2  3  1  0  0  0  0
  3  4  1  0  0  0  0
  4  5  1  0  0  0  0
  5  6  1  0  0  0  0
  6  7  1  0  0  0  0
  4  8  1  0  0  0  0
  8  9  1  0  0  0  0
  9 10  1  0  0  0  0
  4 11  1  0  0  0  0
 11 12  1  0  0  0  0
 12 13  1  0  0  0  0
M  END
> <RowID>
1086

> <Original_SMILES>
CCO[Si](OCC)(OCC)OCC

> <Canonical_QSARr>
CCO[Si](OCC)(OCC)OCC

> <InChI_Code_QSARr>
InChI=1S/C8H20O4Si/c1-5-9-13(10-6-2,11-7-3)12-8-4/h5-8H2,1-4H3

> <InChI Key_QSARr>
BOTDANWDWHJENH-UHFFFAOYSA-N

> <Salt_Solvent>


> <Salt_Solvent_ID>
0

> <Number of connected components>
1

$$$$
Molecule_1088
  Mrv2316 01072400032D          

 16 17  0  0  0  0            999 V2000
    3.3937   -1.6500    0.0000 O   0  0  0  0  0  0  0  0  0  0  0  0
    4.1082   -1.2375    0.0000 C   0  0  0  0  0  0  0  0  0  0  0  0
    4.8227   -1.6500    0.0000 O   0  0  0  0  0  0  0  0  0  0  0  0
    4.8227   -2.4750    0.0000 C   0  0  0  0  0  0  0  0  0  0  0  0
    4.1082   -2.8875    0.0000 C   0  0  0  0  0  0  0  0  0  0  0  0
    4.1082   -3.7125    0.0000 C   0  0  0  0  0  0  0  0  0  0  0  0
    4.8227   -4.1250    0.0000 C   0  0  0  0  0  0  0  0  0  0  0  0
    5.5372   -3.7125    0.0000 C   0  0  0  0  0  0  0  0  0  0  0  0
    5.5372   -2.8875    0.0000 C   0  0  0  0  0  0  0  0  0  0  0  0
    4.1082   -0.4125    0.0000 O   0  0  0  0  0  0  0  0  0  0  0  0
    3.3937   -0.0000    0.0000 C   0  0  0  0  0  0  0  0  0  0  0  0
    3.3937    0.8250    0.0000 C   0  0  0  0  0  0  0  0  0  0  0  0
    2.6793    1.2375    0.0000 C   0  0  0  0  0  0  0  0  0  0  0  0
    1.9648    0.8250    0.0000 C   0  0  0  0  0  0  0  0  0  0  0  0
    1.9648   -0.0000    0.0000 C   0  0  0  0  0  0  0  0  0  0  0  0
    2.6793   -0.4125    0.0000 C   0  0  0  0  0  0  0  0  0  0  0  0
  1  2  2  0  0  0  0
  2  3  1  0  0  0  0
  3  4  1  0  0  0  0
  5  4  1  0  0  0  0
  6  5  2  0  0  0  0
  7  6  1  0  0  0  0
  8  7  2  0  0  0  0
  9  8  1  0  0  0  0
  4  9  2  0  0  0  0
  2 10  1  0  0  0  0
 10 11  1  0  0  0  0
 12 11  1  0  0  0  0
 13 12  2  0  0  0  0
 14 13  1  0  0  0  0
 15 14  2  0  0  0  0
 16 15  1  0  0  0  0
 11 16  2  0  0  0  0
M  END
> <RowID>
1088

> <Original_SMILES>
O=C(OC1C=CC=CC=1)OC1C=CC=CC=1

> <Canonical_QSARr>
O=C(OC1C=CC=CC=1)OC1C=CC=CC=1

> <InChI_Code_QSARr>
InChI=1S/C13H10O3/c14-13(15-11-7-3-1-4-8-11)16-12-9-5-2-6-10-12/h1-10H

> <InChI Key_QSARr>
ROORDVPLFPIABK-UHFFFAOYSA-N

> <Salt_Solvent>


> <Salt_Solvent_ID>
0

> <Number of connected components>
1

$$$$
Molecule_1089
  Mrv2316 01072400032D          

 10 10  0  0  0  0            999 V2000
    0.7145   -2.0625    0.0000 C   0  0  0  0  0  0  0  0  0  0  0  0
    0.7145   -1.2375    0.0000 C   0  0  0  0  0  0  0  0  0  0  0  0
    1.4289   -0.8250    0.0000 C   0  0  0  0  0  0  0  0  0  0  0  0
    1.4289   -0.0000    0.0000 C   0  0  0  0  0  0  0  0  0  0  0  0
    0.7145    0.4125    0.0000 C   0  0  0  0  0  0  0  0  0  0  0  0
    0.7145    1.2375    0.0000 N   0  3  0  0  0  0  0  0  0  0  0  0
   -0.0000    1.6500    0.0000 O   0  5  0  0  0  0  0  0  0  0  0  0
    1.4289    1.6500    0.0000 O   0  0  0  0  0  0  0  0  0  0  0  0
   -0.0000   -0.0000    0.0000 C   0  0  0  0  0  0  0  0  0  0  0  0
   -0.0000   -0.8250    0.0000 C   0  0  0  0  0  0  0  0  0  0  0  0
  1  2  1  0  0  0  0
  3  2  2  0  0  0  0
  4  3  1  0  0  0  0
  5  4  2  0  0  0  0
  5  6  1  0  0  0  0
  6  7  1  0  0  0  0
  6  8  2  0  0  0  0
  9  5  1  0  0  0  0
 10  9  2  0  0  0  0
  2 10  1  0  0  0  0
M  CHG  2   6   1   7  -1
M  END
> <RowID>
1089

> <Original_SMILES>
CC1=CC=C(C=C1)[N+]([O-])=O

> <Canonical_QSARr>
CC1=CC=C(C=C1)[N+]([O-])=O

> <InChI_Code_QSARr>
InChI=1S/C7H7NO2/c1-6-2-4-7(5-3-6)8(9)10/h2-5H,1H3

> <InChI Key_QSARr>
ZPTVNYMJQHSSEA-UHFFFAOYSA-N

> <Salt_Solvent>


> <Salt_Solvent_ID>
0

> <Number of connected components>
1

$$$$
Molecule_1093
  Mrv2316 01072400032D          

 13 12  0  0  0  0            999 V2000
    1.0461    1.4289    0.0000 O   0  0  0  0  0  0  0  0  0  0  0  0
    1.7605    1.8414    0.0000 C   0  0  0  0  0  0  0  0  0  0  0  0
    2.4750    1.4289    0.0000 C   0  0  0  0  0  0  0  0  0  0  0  0
    2.4750    0.6039    0.0000 O   0  0  0  0  0  0  0  0  0  0  0  0
    3.1895    1.8414    0.0000 C   0  0  0  0  0  0  0  0  0  0  0  0
    3.1895    2.6664    0.0000 O   0  0  0  0  0  0  0  0  0  0  0  0
    3.9039    1.4289    0.0000 C   0  0  0  0  0  0  0  0  0  0  0  0
    3.9039    0.6039    0.0000 O   0  0  0  0  0  0  0  0  0  0  0  0
    4.6184    1.8414    0.0000 C   0  0  0  0  0  0  0  0  0  0  0  0
    4.6184    2.6664    0.0000 O   0  0  0  0  0  0  0  0  0  0  0  0
    5.3329    1.4289    0.0000 C   0  0  0  0  0  0  0  0  0  0  0  0
    6.0474    1.8414    0.0000 O   0  0  0  0  0  0  0  0  0  0  0  0
    5.3329    0.6039    0.0000 O   0  0  0  0  0  0  0  0  0  0  0  0
  1  2  1  0  0  0  0
  2  3  1  0  0  0  0
  3  4  1  0  0  0  0
  3  5  1  0  0  0  0
  5  6  1  0  0  0  0
  5  7  1  0  0  0  0
  7  8  1  0  0  0  0
  7  9  1  0  0  0  0
  9 10  1  0  0  0  0
  9 11  1  0  0  0  0
 11 12  1  0  0  0  0
 11 13  2  0  0  0  0
M  END
> <RowID>
1093

> <Original_SMILES>
OCC(O)C(O)C(O)C(O)C(O)=O

> <Canonical_QSARr>
OCC(O)C(O)C(O)C(O)C(O)=O

> <InChI_Code_QSARr>
InChI=1S/C6H12O7/c7-1-2(8)3(9)4(10)5(11)6(12)13/h2-5,7-11H,1H2,(H,12,13)

> <InChI Key_QSARr>
RGHNJXZEOKUKBD-UHFFFAOYSA-N

> <Salt_Solvent>


> <Salt_Solvent_ID>
0

> <Number of connected components>
1

$$$$
Molecule_1094
  Mrv2316 01072400032D          

 13 12  0  0  0  0            999 V2000
    2.2836    2.1434    0.0000 C   0  0  0  0  0  0  0  0  0  0  0  0
    2.9980    2.5559    0.0000 C   0  0  0  0  0  0  0  0  0  0  0  0
    3.7125    2.1434    0.0000 C   0  0  0  0  0  0  0  0  0  0  0  0
    4.4270    2.5559    0.0000 C   0  0  0  0  0  0  0  0  0  0  0  0
    5.1414    2.1434    0.0000 C   0  0  0  0  0  0  0  0  0  0  0  0
    5.8559    2.5559    0.0000 C   0  0  0  0  0  0  0  0  0  0  0  0
    6.5704    2.1434    0.0000 O   0  0  0  0  0  0  0  0  0  0  0  0
    7.2849    2.5559    0.0000 C   0  0  0  0  0  0  0  0  0  0  0  0
    7.2849    3.3809    0.0000 O   0  0  0  0  0  0  0  0  0  0  0  0
    7.9993    2.1434    0.0000 C   0  0  0  0  0  0  0  0  0  0  0  0
    8.7138    2.5559    0.0000 S   0  0  0  0  0  0  0  0  0  0  0  0
    5.1414    1.3184    0.0000 C   0  0  0  0  0  0  0  0  0  0  0  0
    5.8559    0.9059    0.0000 C   0  0  0  0  0  0  0  0  0  0  0  0
  1  2  1  0  0  0  0
  2  3  1  0  0  0  0
  3  4  1  0  0  0  0
  4  5  1  0  0  0  0
  5  6  1  0  0  0  0
  6  7  1  0  0  0  0
  7  8  1  0  0  0  0
  8  9  2  0  0  0  0
  8 10  1  0  0  0  0
 10 11  1  0  0  0  0
  5 12  1  0  0  0  0
 12 13  1  0  0  0  0
M  END
> <RowID>
1094

> <Original_SMILES>
CCCCC(COC(=O)CS)CC

> <Canonical_QSARr>
CCCCC(COC(=O)CS)CC

> <InChI_Code_QSARr>
InChI=1S/C10H20O2S/c1-3-5-6-9(4-2)7-12-10(11)8-13/h9,13H,3-8H2,1-2H3

> <InChI Key_QSARr>
OWHSTLLOZWTNTQ-UHFFFAOYSA-N

> <Salt_Solvent>


> <Salt_Solvent_ID>
0

> <Number of connected components>
1

$$$$
Molecule_1095
  Mrv2316 01072400032D          

  8  8  0  0  0  0            999 V2000
    0.7145   -1.2375    0.0000 C   0  0  0  0  0  0  0  0  0  0  0  0
    0.7145   -0.4125    0.0000 C   0  0  0  0  0  0  0  0  0  0  0  0
    1.4289    0.0000    0.0000 C   0  0  0  0  0  0  0  0  0  0  0  0
    1.4289    0.8250    0.0000 C   0  0  0  0  0  0  0  0  0  0  0  0
    0.7145    1.2375    0.0000 C   0  0  0  0  0  0  0  0  0  0  0  0
    0.7145    2.0625    0.0000 N   0  0  0  0  0  0  0  0  0  0  0  0
    0.0000    0.8250    0.0000 C   0  0  0  0  0  0  0  0  0  0  0  0
    0.0000    0.0000    0.0000 C   0  0  0  0  0  0  0  0  0  0  0  0
  1  2  1  0  0  0  0
  3  2  2  0  0  0  0
  4  3  1  0  0  0  0
  5  4  2  0  0  0  0
  5  6  1  0  0  0  0
  7  5  1  0  0  0  0
  8  7  2  0  0  0  0
  2  8  1  0  0  0  0
M  END
> <RowID>
1095

> <Original_SMILES>
CC1=CC=C(N)C=C1

> <Canonical_QSARr>
CC1=CC=C(N)C=C1

> <InChI_Code_QSARr>
InChI=1S/C7H9N/c1-6-2-4-7(8)5-3-6/h2-5H,8H2,1H3

> <InChI Key_QSARr>
RZXMPPFPUUCRFN-UHFFFAOYSA-N

> <Salt_Solvent>


> <Salt_Solvent_ID>
0

> <Number of connected components>
1

$$$$
Molecule_1096
  Mrv2316 01072400032D          

 14 14  0  0  0  0            999 V2000
    1.5874    2.3071    0.0000 O   0  0  0  0  0  0  0  0  0  0  0  0
    1.9132    1.5492    0.0000 C   0  0  0  0  0  0  0  0  0  0  0  0
    1.4916    0.8401    0.0000 C   0  0  0  0  0  0  0  0  0  0  0  0
    0.6419    0.5350    0.0000 C   0  0  0  0  0  0  0  0  0  0  0  0
    0.4599   -0.2697    0.0000 C   0  0  0  0  0  0  0  0  0  0  0  0
    1.0659   -0.8296    0.0000 C   0  0  0  0  0  0  0  0  0  0  0  0
    0.8839   -1.6343    0.0000 C   0  0  0  0  0  0  0  0  0  0  0  0
    1.4899   -2.1942    0.0000 C   0  0  0  0  0  0  0  0  0  0  0  0
    2.2777   -1.9494    0.0000 C   0  0  0  0  0  0  0  0  0  0  0  0
    2.4596   -1.1447    0.0000 C   0  0  0  0  0  0  0  0  0  0  0  0
    3.2475   -0.8999    0.0000 C   0  0  0  0  0  0  0  0  0  0  0  0
    3.4294   -0.0952    0.0000 C   0  0  0  0  0  0  0  0  0  0  0  0
    2.7935    0.5457    0.0000 C   0  0  0  0  0  0  0  0  0  0  0  0
    2.7179    1.3672    0.0000 N   0  0  0  0  0  0  0  0  0  0  0  0
  1  2  2  0  0  0  0
  3  2  1  0  0  0  0
  4  3  1  0  0  0  0
  5  4  1  0  0  0  0
  6  5  1  0  0  0  0
  7  6  1  0  0  0  0
  8  7  1  0  0  0  0
  9  8  1  0  0  0  0
 10  9  1  0  0  0  0
 11 10  1  0  0  0  0
 12 11  1  0  0  0  0
 13 12  1  0  0  0  0
 14 13  1  0  0  0  0
  2 14  1  0  0  0  0
M  END
> <RowID>
1096

> <Original_SMILES>
O=C1CCCCCCCCCCCN1

> <Canonical_QSARr>
O=C1CCCCCCCCCCCN1

> <InChI_Code_QSARr>
InChI=1S/C12H23NO/c14-12-10-8-6-4-2-1-3-5-7-9-11-13-12/h1-11H2,(H,13,14)

> <InChI Key_QSARr>
JHWNWJKBPDFINM-UHFFFAOYSA-N

> <Salt_Solvent>


> <Salt_Solvent_ID>
0

> <Number of connected components>
1

$$$$
Molecule_1097
  Mrv2316 01072400032D          

 23 25  0  0  0  0            999 V2000
    2.7372    1.0582    0.0000 O   0  0  0  0  0  0  0  0  0  0  0  0
    3.1497    1.7726    0.0000 P   0  0  0  0  0  0  0  0  0  0  0  0
    3.8642    1.3601    0.0000 O   0  0  0  0  0  0  0  0  0  0  0  0
    3.8642    0.5351    0.0000 C   0  0  0  0  0  0  0  0  0  0  0  0
    3.1497    0.1226    0.0000 C   0  0  0  0  0  0  0  0  0  0  0  0
    3.1497   -0.7024    0.0000 C   0  0  0  0  0  0  0  0  0  0  0  0
    3.8642   -1.1149    0.0000 C   0  0  0  0  0  0  0  0  0  0  0  0
    4.5787   -0.7024    0.0000 C   0  0  0  0  0  0  0  0  0  0  0  0
    4.5787    0.1226    0.0000 C   0  0  0  0  0  0  0  0  0  0  0  0
    2.4353    2.1851    0.0000 O   0  0  0  0  0  0  0  0  0  0  0  0
    1.7208    1.7726    0.0000 C   0  0  0  0  0  0  0  0  0  0  0  0
    1.0063    2.1851    0.0000 C   0  0  0  0  0  0  0  0  0  0  0  0
    0.2919    1.7726    0.0000 C   0  0  0  0  0  0  0  0  0  0  0  0
    0.2919    0.9476    0.0000 C   0  0  0  0  0  0  0  0  0  0  0  0
    1.0063    0.5351    0.0000 C   0  0  0  0  0  0  0  0  0  0  0  0
    1.7208    0.9476    0.0000 C   0  0  0  0  0  0  0  0  0  0  0  0
    3.5622    2.4871    0.0000 O   0  0  0  0  0  0  0  0  0  0  0  0
    4.3872    2.4871    0.0000 C   0  0  0  0  0  0  0  0  0  0  0  0
    4.7997    1.7726    0.0000 C   0  0  0  0  0  0  0  0  0  0  0  0
    5.6247    1.7726    0.0000 C   0  0  0  0  0  0  0  0  0  0  0  0
    6.0372    2.4871    0.0000 C   0  0  0  0  0  0  0  0  0  0  0  0
    5.6247    3.2016    0.0000 C   0  0  0  0  0  0  0  0  0  0  0  0
    4.7997    3.2016    0.0000 C   0  0  0  0  0  0  0  0  0  0  0  0
  1  2  2  0  0  0  0
  2  3  1  0  0  0  0
  3  4  1  0  0  0  0
  5  4  1  0  0  0  0
  6  5  2  0  0  0  0
  7  6  1  0  0  0  0
  8  7  2  0  0  0  0
  9  8  1  0  0  0  0
  4  9  2  0  0  0  0
  2 10  1  0  0  0  0
 10 11  1  0  0  0  0
 12 11  1  0  0  0  0
 13 12  2  0  0  0  0
 14 13  1  0  0  0  0
 15 14  2  0  0  0  0
 16 15  1  0  0  0  0
 11 16  2  0  0  0  0
  2 17  1  0  0  0  0
 17 18  1  0  0  0  0
 19 18  1  0  0  0  0
 20 19  2  0  0  0  0
 21 20  1  0  0  0  0
 22 21  2  0  0  0  0
 23 22  1  0  0  0  0
 18 23  2  0  0  0  0
M  END
> <RowID>
1097

> <Original_SMILES>
O=P(OC1C=CC=CC=1)(OC1C=CC=CC=1)OC1C=CC=CC=1

> <Canonical_QSARr>
O=P(OC1C=CC=CC=1)(OC1C=CC=CC=1)OC1C=CC=CC=1

> <InChI_Code_QSARr>
InChI=1S/C18H15O4P/c19-23(20-16-10-4-1-5-11-16,21-17-12-6-2-7-13-17)22-18-14-8-3-9-15-18/h1-15H

> <InChI Key_QSARr>
XZZNDPSIHUTMOC-UHFFFAOYSA-N

> <Salt_Solvent>


> <Salt_Solvent_ID>
0

> <Number of connected components>
1

$$$$
Molecule_1098
  Mrv2316 01072400032D          

  5  4  0  0  0  0            999 V2000
    1.2375    0.7145    0.0000 C   0  0  0  0  0  0  0  0  0  0  0  0
    0.8250    0.0000    0.0000 C   0  0  0  0  0  0  0  0  0  0  0  0
    0.0000    0.0000    0.0000 C   0  0  0  0  0  0  0  0  0  0  0  0
   -0.4125   -0.7145    0.0000 C   0  0  0  0  0  0  0  0  0  0  0  0
   -0.4125    0.7145    0.0000 C   0  0  0  0  0  0  0  0  0  0  0  0
  1  2  1  0  0  0  0
  2  3  2  0  0  0  0
  3  4  1  0  0  0  0
  3  5  1  0  0  0  0
M  END
> <RowID>
1098

> <Original_SMILES>
CC=C(C)C

> <Canonical_QSARr>
CC=C(C)C

> <InChI_Code_QSARr>
InChI=1S/C5H10/c1-4-5(2)3/h4H,1-3H3

> <InChI Key_QSARr>
BKOOMYPCSUNDGP-UHFFFAOYSA-N

> <Salt_Solvent>


> <Salt_Solvent_ID>
0

> <Number of connected components>
1

$$$$
Molecule_1099
  Mrv2316 01072400032D          

  5  4  0  0  0  0            999 V2000
    2.0625   -0.7145    0.0000 C   0  0  0  0  0  0  0  0  0  0  0  0
    1.2375   -0.7145    0.0000 C   0  0  0  0  0  0  0  0  0  0  0  0
    0.8250   -1.4289    0.0000 O   0  0  0  0  0  0  0  0  0  0  0  0
    0.8250   -0.0000    0.0000 C   0  0  0  0  0  0  0  0  0  0  0  0
    0.0000   -0.0000    0.0000 O   0  0  0  0  0  0  0  0  0  0  0  0
  1  2  1  0  0  0  0
  2  3  1  0  0  0  0
  2  4  1  0  0  0  0
  4  5  1  0  0  0  0
M  END
> <RowID>
1099

> <Original_SMILES>
CC(O)CO

> <Canonical_QSARr>
CC(O)CO

> <InChI_Code_QSARr>
InChI=1S/C3H8O2/c1-3(5)2-4/h3-5H,2H2,1H3

> <InChI Key_QSARr>
DNIAPMSPPWPWGF-UHFFFAOYSA-N

> <Salt_Solvent>


> <Salt_Solvent_ID>
0

> <Number of connected components>
1

$$$$
Molecule_1100
  Mrv2316 01072400032D          

  9  9  0  0  0  0            999 V2000
    1.4289    2.4750    0.0000 O   0  0  0  0  0  0  0  0  0  0  0  0
    0.7145    2.0625    0.0000 C   0  0  0  0  0  0  0  0  0  0  0  0
   -0.0000    2.4750    0.0000 O   0  0  0  0  0  0  0  0  0  0  0  0
    0.7145    1.2375    0.0000 C   0  0  0  0  0  0  0  0  0  0  0  0
   -0.0000    0.8250    0.0000 C   0  0  0  0  0  0  0  0  0  0  0  0
   -0.0000   -0.0000    0.0000 C   0  0  0  0  0  0  0  0  0  0  0  0
    0.7145   -0.4125    0.0000 C   0  0  0  0  0  0  0  0  0  0  0  0
    1.4289    0.0000    0.0000 C   0  0  0  0  0  0  0  0  0  0  0  0
    1.4289    0.8250    0.0000 C   0  0  0  0  0  0  0  0  0  0  0  0
  1  2  1  0  0  0  0
  2  3  2  0  0  0  0
  2  4  1  0  0  0  0
  5  4  2  0  0  0  0
  6  5  1  0  0  0  0
  7  6  2  0  0  0  0
  8  7  1  0  0  0  0
  9  8  2  0  0  0  0
  4  9  1  0  0  0  0
M  END
> <RowID>
1100

> <Original_SMILES>
[Na+].[O-]C(=O)C1C=CC=CC=1

> <Canonical_QSARr>
OC(=O)C1C=CC=CC=1

> <InChI_Code_QSARr>
InChI=1S/C7H6O2/c8-7(9)6-4-2-1-3-5-6/h1-5H,(H,8,9)

> <InChI Key_QSARr>
WPYMKLBDIGXBTP-UHFFFAOYSA-N

> <Salt_Solvent>
[Na+]

> <Salt_Solvent_ID>
110

> <Number of connected components>
2

$$$$
Molecule_1101
  Mrv2316 01072400032D          

 17 17  0  0  0  0            999 V2000
    2.8579   -1.7956    0.0000 C   0  0  0  0  0  0  0  0  0  0  0  0
    2.1434   -1.3831    0.0000 C   0  0  0  0  0  0  0  0  0  0  0  0
    1.4289   -1.7956    0.0000 O   0  0  0  0  0  0  0  0  0  0  0  0
    2.1434   -0.5581    0.0000 N   0  0  0  0  0  0  0  0  0  0  0  0
    1.4289   -0.1456    0.0000 C   0  0  0  0  0  0  0  0  0  0  0  0
    1.4289    0.6794    0.0000 C   0  0  0  0  0  0  0  0  0  0  0  0
    0.7145    1.0919    0.0000 C   0  0  0  0  0  0  0  0  0  0  0  0
    0.7145    1.9169    0.0000 O   0  0  0  0  0  0  0  0  0  0  0  0
   -0.0000    2.3294    0.0000 C   0  0  0  0  0  0  0  0  0  0  0  0
   -0.0000    0.6794    0.0000 C   0  0  0  0  0  0  0  0  0  0  0  0
   -0.7145    1.0919    0.0000 C   0  0  0  0  0  0  0  0  0  0  0  0
   -1.4289    0.6794    0.0000 O   0  0  0  0  0  0  0  0  0  0  0  0
   -0.7145    1.9169    0.0000 O   0  0  0  0  0  0  0  0  0  0  0  0
   -1.4289    2.3294    0.0000 C   0  0  0  0  0  0  0  0  0  0  0  0
   -0.0000   -0.1456    0.0000 C   0  0  0  0  0  0  0  0  0  0  0  0
    0.7145   -0.5581    0.0000 C   0  0  0  0  0  0  0  0  0  0  0  0
    0.7145   -1.3831    0.0000 I   0  0  0  0  0  0  0  0  0  0  0  0
  1  2  1  0  0  0  0
  2  3  2  0  0  0  0
  2  4  1  0  0  0  0
  4  5  1  0  0  0  0
  6  5  2  0  0  0  0
  7  6  1  0  0  0  0
  7  8  1  0  0  0  0
  8  9  1  0  0  0  0
 10  7  2  0  0  0  0
 10 11  1  0  0  0  0
 11 12  2  0  0  0  0
 11 13  1  0  0  0  0
 13 14  1  0  0  0  0
 15 10  1  0  0  0  0
 16 15  2  0  0  0  0
  5 16  1  0  0  0  0
 16 17  1  0  0  0  0
M  END
> <RowID>
1101

> <Original_SMILES>
CC(=O)NC1=CC(OC)=C(C=C1I)C(=O)OC

> <Canonical_QSARr>
CC(=O)NC1=CC(OC)=C(C=C1I)C(=O)OC

> <InChI_Code_QSARr>
InChI=1S/C11H12INO4/c1-6(14)13-9-5-10(16-2)7(4-8(9)12)11(15)17-3/h4-5H,1-3H3,(H,13,14)

> <InChI Key_QSARr>
HBIIHFLPYDIZCG-UHFFFAOYSA-N

> <Salt_Solvent>


> <Salt_Solvent_ID>
0

> <Number of connected components>
1

$$$$
Molecule_1102
  Mrv2316 01072400032D          

 20 23  0  0  0  0            999 V2000
   -1.6834    0.7541    0.0000 O   0  0  0  0  0  0  0  0  0  0  0  0
   -1.9383   -0.0305    0.0000 C   0  0  0  0  0  0  0  0  0  0  0  0
   -2.7230   -0.2854    0.0000 C   0  0  0  0  0  0  0  0  0  0  0  0
   -2.7230   -1.1104    0.0000 C   0  0  0  0  0  0  0  0  0  0  0  0
   -3.4374   -1.5229    0.0000 C   0  0  0  0  0  0  0  0  0  0  0  0
   -4.1519   -1.1104    0.0000 C   0  0  0  0  0  0  0  0  0  0  0  0
   -4.1519   -0.2854    0.0000 C   0  0  0  0  0  0  0  0  0  0  0  0
   -3.4374    0.1271    0.0000 C   0  0  0  0  0  0  0  0  0  0  0  0
   -1.9383   -1.3654    0.0000 N   0  0  0  0  0  0  0  0  0  0  0  0
   -1.4534   -0.6979    0.0000 C   0  0  0  0  0  0  0  0  0  0  0  0
   -0.6284   -0.6979    0.0000 C   0  0  0  0  0  0  0  0  0  0  0  0
   -0.1435   -1.3654    0.0000 C   0  0  0  0  0  0  0  0  0  0  0  0
   -0.3984   -2.1500    0.0000 O   0  0  0  0  0  0  0  0  0  0  0  0
    0.6411   -1.1104    0.0000 C   0  0  0  0  0  0  0  0  0  0  0  0
    0.6411   -0.2854    0.0000 C   0  0  0  0  0  0  0  0  0  0  0  0
    1.3556    0.1271    0.0000 C   0  0  0  0  0  0  0  0  0  0  0  0
    2.0701   -0.2854    0.0000 C   0  0  0  0  0  0  0  0  0  0  0  0
    2.0701   -1.1104    0.0000 C   0  0  0  0  0  0  0  0  0  0  0  0
    1.3556   -1.5229    0.0000 C   0  0  0  0  0  0  0  0  0  0  0  0
   -0.1435   -0.0305    0.0000 N   0  0  0  0  0  0  0  0  0  0  0  0
  1  2  1  0  0  0  0
  3  2  1  0  0  0  0
  3  4  2  0  0  0  0
  4  5  1  0  0  0  0
  5  6  2  0  0  0  0
  6  7  1  0  0  0  0
  7  8  2  0  0  0  0
  8  3  1  0  0  0  0
  9  4  1  0  0  0  0
 10  9  1  0  0  0  0
  2 10  2  0  0  0  0
 10 11  1  0  0  0  0
 12 11  2  0  0  0  0
 12 13  1  0  0  0  0
 14 12  1  0  0  0  0
 14 15  2  0  0  0  0
 15 16  1  0  0  0  0
 16 17  2  0  0  0  0
 17 18  1  0  0  0  0
 18 19  2  0  0  0  0
 19 14  1  0  0  0  0
 20 15  1  0  0  0  0
 11 20  1  0  0  0  0
M  END
> <RowID>
1102

> <Original_SMILES>
[Na+].[Na+].[O-]C1=C(NC2=CC=CC=C12)C1NC2=CC=CC=C2C=1[O-]

> <Canonical_QSARr>
OC1=C(NC2C=CC=CC1=2)C1NC2C=CC=CC=2C=1O

> <InChI_Code_QSARr>
InChI=1S/C16H12N2O2/c19-15-9-5-1-3-7-11(9)17-13(15)14-16(20)10-6-2-4-8-12(10)18-14/h1-8,17-20H

> <InChI Key_QSARr>
VIFKLIUAPGUEBV-UHFFFAOYSA-N

> <Salt_Solvent>
[Na+]

> <Salt_Solvent_ID>
110

> <Number of connected components>
3

$$$$
Molecule_1103
  Mrv2316 01072400032D          

 36 35  0  0  0  0            999 V2000
   17.1336   10.7171    0.0000 C   0  0  0  0  0  0  0  0  0  0  0  0
   17.8480   11.1296    0.0000 C   0  0  0  0  0  0  0  0  0  0  0  0
   18.5625   10.7171    0.0000 C   0  0  0  0  0  0  0  0  0  0  0  0
   19.2770   11.1296    0.0000 C   0  0  0  0  0  0  0  0  0  0  0  0
   19.9914   10.7171    0.0000 C   0  0  0  0  0  0  0  0  0  0  0  0
   20.7059   11.1296    0.0000 C   0  0  0  0  0  0  0  0  0  0  0  0
   21.4204   10.7171    0.0000 C   0  0  0  0  0  0  0  0  0  0  0  0
   22.1349   11.1296    0.0000 C   0  0  0  0  0  0  0  0  0  0  0  0
   22.8493   10.7171    0.0000 C   0  0  0  0  0  0  0  0  0  0  0  0
   23.5638   11.1296    0.0000 C   0  0  0  0  0  0  0  0  0  0  0  0
   24.2783   10.7171    0.0000 C   0  0  0  0  0  0  0  0  0  0  0  0
   24.9927   11.1296    0.0000 C   0  0  0  0  0  0  0  0  0  0  0  0
   25.7072   10.7171    0.0000 C   0  0  0  0  0  0  0  0  0  0  0  0
   26.4217   11.1296    0.0000 O   0  0  0  0  0  0  0  0  0  0  0  0
   27.1362   10.7171    0.0000 C   0  0  0  0  0  0  0  0  0  0  0  0
   27.1362    9.8921    0.0000 O   0  0  0  0  0  0  0  0  0  0  0  0
   27.8506   11.1296    0.0000 C   0  0  0  0  0  0  0  0  0  0  0  0
   28.5651   10.7171    0.0000 C   0  0  0  0  0  0  0  0  0  0  0  0
   29.2796   11.1296    0.0000 C   0  0  0  0  0  0  0  0  0  0  0  0
   29.9940   10.7171    0.0000 C   0  0  0  0  0  0  0  0  0  0  0  0
   30.7085   11.1296    0.0000 C   0  0  0  0  0  0  0  0  0  0  0  0
   30.7085   11.9546    0.0000 O   0  0  0  0  0  0  0  0  0  0  0  0
   31.4230   10.7171    0.0000 O   0  0  0  0  0  0  0  0  0  0  0  0
   32.1375   11.1296    0.0000 C   0  0  0  0  0  0  0  0  0  0  0  0
   32.8519   10.7171    0.0000 C   0  0  0  0  0  0  0  0  0  0  0  0
   33.5664   11.1296    0.0000 C   0  0  0  0  0  0  0  0  0  0  0  0
   34.2809   10.7171    0.0000 C   0  0  0  0  0  0  0  0  0  0  0  0
   34.9953   11.1296    0.0000 C   0  0  0  0  0  0  0  0  0  0  0  0
   35.7098   10.7171    0.0000 C   0  0  0  0  0  0  0  0  0  0  0  0
   36.4243   11.1296    0.0000 C   0  0  0  0  0  0  0  0  0  0  0  0
   37.1387   10.7171    0.0000 C   0  0  0  0  0  0  0  0  0  0  0  0
   37.8532   11.1296    0.0000 C   0  0  0  0  0  0  0  0  0  0  0  0
   38.5677   10.7171    0.0000 C   0  0  0  0  0  0  0  0  0  0  0  0
   39.2822   11.1296    0.0000 C   0  0  0  0  0  0  0  0  0  0  0  0
   39.9966   10.7171    0.0000 C   0  0  0  0  0  0  0  0  0  0  0  0
   40.7111   11.1296    0.0000 C   0  0  0  0  0  0  0  0  0  0  0  0
  1  2  1  0  0  0  0
  2  3  1  0  0  0  0
  3  4  1  0  0  0  0
  4  5  1  0  0  0  0
  5  6  1  0  0  0  0
  6  7  1  0  0  0  0
  7  8  1  0  0  0  0
  8  9  1  0  0  0  0
  9 10  1  0  0  0  0
 10 11  1  0  0  0  0
 11 12  1  0  0  0  0
 12 13  1  0  0  0  0
 13 14  1  0  0  0  0
 14 15  1  0  0  0  0
 15 16  2  0  0  0  0
 15 17  1  0  0  0  0
 17 18  1  0  0  0  0
 18 19  1  0  0  0  0
 19 20  1  0  0  0  0
 20 21  1  0  0  0  0
 21 22  2  0  0  0  0
 21 23  1  0  0  0  0
 23 24  1  0  0  0  0
 24 25  1  0  0  0  0
 25 26  1  0  0  0  0
 26 27  1  0  0  0  0
 27 28  1  0  0  0  0
 28 29  1  0  0  0  0
 29 30  1  0  0  0  0
 30 31  1  0  0  0  0
 31 32  1  0  0  0  0
 32 33  1  0  0  0  0
 33 34  1  0  0  0  0
 34 35  1  0  0  0  0
 35 36  1  0  0  0  0
M  END
> <RowID>
1103

> <Original_SMILES>
CCCCCCCCCCCCCOC(=O)CCCCC(=O)OCCCCCCCCCCCCC

> <Canonical_QSARr>
CCCCCCCCCCCCCOC(=O)CCCCC(=O)OCCCCCCCCCCCCC

> <InChI_Code_QSARr>
InChI=1S/C32H62O4/c1-3-5-7-9-11-13-15-17-19-21-25-29-35-31(33)27-23-24-28-32(34)36-30-26-22-20-18-16-14-12-10-8-6-4-2/h3-30H2,1-2H3

> <InChI Key_QSARr>
LZJUZSYHFSVIGJ-UHFFFAOYSA-N

> <Salt_Solvent>


> <Salt_Solvent_ID>
0

> <Number of connected components>
1

$$$$
Molecule_1105
  Mrv2316 01072400032D          

 15 15  0  0  0  0            999 V2000
    2.1434   -1.2375    0.0000 O   0  5  0  0  0  0  0  0  0  0  0  0
    2.1434   -0.4125    0.0000 N   0  3  0  0  0  0  0  0  0  0  0  0
    2.8579   -0.0000    0.0000 O   0  0  0  0  0  0  0  0  0  0  0  0
    1.4289   -0.0000    0.0000 N   0  0  0  0  0  0  0  0  0  0  0  0
    1.4289    0.8250    0.0000 C   0  0  0  0  0  0  0  0  0  0  0  0
    0.7145    1.2375    0.0000 N   0  0  0  0  0  0  0  0  0  0  0  0
    0.7145    2.0625    0.0000 N   0  3  0  0  0  0  0  0  0  0  0  0
   -0.0000    2.4750    0.0000 O   0  5  0  0  0  0  0  0  0  0  0  0
    1.4289    2.4750    0.0000 O   0  0  0  0  0  0  0  0  0  0  0  0
   -0.0000    0.8250    0.0000 C   0  0  0  0  0  0  0  0  0  0  0  0
   -0.0000    0.0000    0.0000 N   0  0  0  0  0  0  0  0  0  0  0  0
   -0.7145   -0.4125    0.0000 N   0  3  0  0  0  0  0  0  0  0  0  0
   -0.7145   -1.2375    0.0000 O   0  5  0  0  0  0  0  0  0  0  0  0
   -1.4289   -0.0000    0.0000 O   0  0  0  0  0  0  0  0  0  0  0  0
    0.7145   -0.4125    0.0000 C   0  0  0  0  0  0  0  0  0  0  0  0
  1  2  1  0  0  0  0
  2  3  2  0  0  0  0
  2  4  1  0  0  0  0
  5  4  1  0  0  0  0
  6  5  1  0  0  0  0
  6  7  1  0  0  0  0
  7  8  1  0  0  0  0
  7  9  2  0  0  0  0
 10  6  1  0  0  0  0
 11 10  1  0  0  0  0
 11 12  1  0  0  0  0
 12 13  1  0  0  0  0
 12 14  2  0  0  0  0
 15 11  1  0  0  0  0
  4 15  1  0  0  0  0
M  CHG  6   1  -1   2   1   7   1   8  -1  12   1  13  -1
M  END
> <RowID>
1105

> <Original_SMILES>
[O-][N+](=O)N1CN(CN(C1)[N+]([O-])=O)[N+]([O-])=O

> <Canonical_QSARr>
[O-][N+](=O)N1CN(CN(C1)[N+]([O-])=O)[N+]([O-])=O

> <InChI_Code_QSARr>
InChI=1S/C3H6N6O6/c10-7(11)4-1-5(8(12)13)3-6(2-4)9(14)15/h1-3H2

> <InChI Key_QSARr>
XTFIVUDBNACUBN-UHFFFAOYSA-N

> <Salt_Solvent>


> <Salt_Solvent_ID>
0

> <Number of connected components>
1

$$$$
Molecule_1106
  Mrv2316 01072400032D          

 25 30  0  0  0  0            999 V2000
    2.7324    3.5949    0.0000 O   0  0  0  0  0  0  0  0  0  0  0  0
    2.5342    2.7941    0.0000 C   0  0  0  0  0  0  0  0  0  0  0  0
    3.1287    2.2220    0.0000 C   0  0  0  0  0  0  0  0  0  0  0  0
    3.9213    2.4508    0.0000 C   0  0  0  0  0  0  0  0  0  0  0  0
    4.5158    1.8788    0.0000 C   0  0  0  0  0  0  0  0  0  0  0  0
    4.3177    1.0780    0.0000 C   0  0  0  0  0  0  0  0  0  0  0  0
    3.5250    0.8492    0.0000 C   0  0  0  0  0  0  0  0  0  0  0  0
    2.9305    1.4212    0.0000 C   0  0  0  0  0  0  0  0  0  0  0  0
    2.1379    1.1924    0.0000 C   0  0  0  0  0  0  0  0  0  0  0  0
    1.5434    1.7644    0.0000 C   0  0  0  0  0  0  0  0  0  0  0  0
    0.7508    1.5356    0.0000 C   0  0  0  0  0  0  0  0  0  0  0  0
    0.1563    2.1076    0.0000 C   0  0  0  0  0  0  0  0  0  0  0  0
    0.3545    2.9085    0.0000 C   0  0  0  0  0  0  0  0  0  0  0  0
    1.1471    3.1373    0.0000 C   0  0  0  0  0  0  0  0  0  0  0  0
    1.7416    2.5653    0.0000 C   0  0  0  0  0  0  0  0  0  0  0  0
   -0.6363    1.8788    0.0000 C   0  0  0  0  0  0  0  0  0  0  0  0
   -1.2308    2.4508    0.0000 C   0  0  0  0  0  0  0  0  0  0  0  0
   -2.0234    2.2220    0.0000 C   0  0  0  0  0  0  0  0  0  0  0  0
   -2.2216    1.4212    0.0000 C   0  0  0  0  0  0  0  0  0  0  0  0
   -1.6271    0.8492    0.0000 C   0  0  0  0  0  0  0  0  0  0  0  0
   -0.8345    1.0780    0.0000 C   0  0  0  0  0  0  0  0  0  0  0  0
   -0.2400    0.5059    0.0000 S   0  0  0  0  0  0  0  0  0  0  0  0
    0.5526    0.7347    0.0000 C   0  0  0  0  0  0  0  0  0  0  0  0
    1.1471    0.1627    0.0000 C   0  0  0  0  0  0  0  0  0  0  0  0
    1.9398    0.3915    0.0000 C   0  0  0  0  0  0  0  0  0  0  0  0
  1  2  2  0  0  0  0
  3  2  1  0  0  0  0
  3  4  2  0  0  0  0
  4  5  1  0  0  0  0
  5  6  2  0  0  0  0
  6  7  1  0  0  0  0
  7  8  2  0  0  0  0
  8  3  1  0  0  0  0
  9  8  1  0  0  0  0
  9 10  1  0  0  0  0
 10 11  2  0  0  0  0
 12 11  1  0  0  0  0
 12 13  2  0  0  0  0
 13 14  1  0  0  0  0
 14 15  2  0  0  0  0
  2 15  1  0  0  0  0
 15 10  1  0  0  0  0
 16 12  1  0  0  0  0
 16 17  2  0  0  0  0
 17 18  1  0  0  0  0
 18 19  2  0  0  0  0
 19 20  1  0  0  0  0
 20 21  2  0  0  0  0
 21 16  1  0  0  0  0
 22 21  1  0  0  0  0
 23 22  1  0  0  0  0
 11 23  1  0  0  0  0
 23 24  2  0  0  0  0
 24 25  1  0  0  0  0
 25  9  2  0  0  0  0
M  END
> <RowID>
1106

> <Original_SMILES>
O=C1C2=CC=CC=C2C2=CC=C3SC4=CC=CC=C4C4=CC=C1C2=C43

> <Canonical_QSARr>
O=C1C2=CC=CC=C2C2=CC=C3SC4=CC=CC=C4C4=CC=C1C2=C43

> <InChI_Code_QSARr>
InChI=1S/C23H12OS/c24-23-17-7-2-1-5-13(17)15-11-12-20-22-16(9-10-18(23)21(15)22)14-6-3-4-8-19(14)25-20/h1-12H

> <InChI Key_QSARr>
NVNWZZLOQBHTCW-UHFFFAOYSA-N

> <Salt_Solvent>


> <Salt_Solvent_ID>
0

> <Number of connected components>
1

$$$$
Molecule_1107
  Mrv2316 01072400032D          

 62 68  0  0  0  0            999 V2000
   -3.9411    1.5568    0.0000 O   0  0  0  0  0  0  0  0  0  0  0  0
   -3.9411    2.3818    0.0000 C   0  0  0  0  0  0  0  0  0  0  0  0
   -4.6556    2.7943    0.0000 C   0  0  0  0  0  0  0  0  0  0  0  0
   -5.3700    2.3818    0.0000 N   0  0  0  0  0  0  0  0  0  0  0  0
   -6.0845    2.7943    0.0000 N   0  0  0  0  0  0  0  0  0  0  0  0
   -6.7990    2.3818    0.0000 C   0  0  0  0  0  0  0  0  0  0  0  0
   -7.5135    2.7944    0.0000 C   0  0  0  0  0  0  0  0  0  0  0  0
   -8.2279    2.3818    0.0000 C   0  0  0  0  0  0  0  0  0  0  0  0
   -8.9424    2.7943    0.0000 C   0  0  0  0  0  0  0  0  0  0  0  0
   -9.6569    3.2069    0.0000 F   0  0  0  0  0  0  0  0  0  0  0  0
   -9.3549    2.0799    0.0000 F   0  0  0  0  0  0  0  0  0  0  0  0
   -8.5299    3.5088    0.0000 F   0  0  0  0  0  0  0  0  0  0  0  0
   -8.2279    1.5568    0.0000 C   0  0  0  0  0  0  0  0  0  0  0  0
   -7.5135    1.1443    0.0000 C   0  0  0  0  0  0  0  0  0  0  0  0
   -6.7990    1.5568    0.0000 C   0  0  0  0  0  0  0  0  0  0  0  0
   -6.0845    1.1443    0.0000 Cl  0  0  0  0  0  0  0  0  0  0  0  0
   -4.6556    3.6193    0.0000 C   0  0  0  0  0  0  0  0  0  0  0  0
   -5.3700    4.0318    0.0000 C   0  0  0  0  0  0  0  0  0  0  0  0
   -5.3700    4.8568    0.0000 C   0  0  0  0  0  0  0  0  0  0  0  0
   -4.6556    5.2693    0.0000 C   0  0  0  0  0  0  0  0  0  0  0  0
   -3.9411    4.8568    0.0000 C   0  0  0  0  0  0  0  0  0  0  0  0
   -3.9411    4.0318    0.0000 C   0  0  0  0  0  0  0  0  0  0  0  0
   -3.2266    3.6193    0.0000 C   0  0  0  0  0  0  0  0  0  0  0  0
   -3.2266    2.7943    0.0000 C   0  0  0  0  0  0  0  0  0  0  0  0
   -2.5122    2.3818    0.0000 C   0  0  0  0  0  0  0  0  0  0  0  0
   -1.7977    2.7944    0.0000 O   0  0  0  0  0  0  0  0  0  0  0  0
   -2.5122    1.5568    0.0000 N   0  0  0  0  0  0  0  0  0  0  0  0
   -1.7977    1.1443    0.0000 C   0  0  0  0  0  0  0  0  0  0  0  0
   -1.7977    0.3193    0.0000 C   0  0  0  0  0  0  0  0  0  0  0  0
   -1.0832   -0.0931    0.0000 C   0  0  0  0  0  0  0  0  0  0  0  0
   -1.0832   -0.9181    0.0000 Cl  0  0  0  0  0  0  0  0  0  0  0  0
   -0.3687    0.3194    0.0000 C   0  0  0  0  0  0  0  0  0  0  0  0
    0.3457   -0.0931    0.0000 N   0  0  0  0  0  0  0  0  0  0  0  0
    0.3457   -0.9181    0.0000 C   0  0  0  0  0  0  0  0  0  0  0  0
   -0.3687   -1.3306    0.0000 O   0  0  0  0  0  0  0  0  0  0  0  0
    1.0602   -1.3306    0.0000 C   0  0  0  0  0  0  0  0  0  0  0  0
    1.7747   -0.9181    0.0000 C   0  0  0  0  0  0  0  0  0  0  0  0
    2.4891   -1.3306    0.0000 C   0  0  0  0  0  0  0  0  0  0  0  0
    3.2036   -0.9181    0.0000 C   0  0  0  0  0  0  0  0  0  0  0  0
    3.9181   -1.3306    0.0000 C   0  0  0  0  0  0  0  0  0  0  0  0
    3.9181   -2.1556    0.0000 C   0  0  0  0  0  0  0  0  0  0  0  0
    3.2036   -2.5681    0.0000 C   0  0  0  0  0  0  0  0  0  0  0  0
    2.4891   -2.1556    0.0000 C   0  0  0  0  0  0  0  0  0  0  0  0
    1.7747   -2.5681    0.0000 C   0  0  0  0  0  0  0  0  0  0  0  0
    1.7747   -3.3931    0.0000 N   0  0  0  0  0  0  0  0  0  0  0  0
    1.0602   -3.8056    0.0000 N   0  0  0  0  0  0  0  0  0  0  0  0
    1.0602   -4.6306    0.0000 C   0  0  0  0  0  0  0  0  0  0  0  0
    0.3457   -5.0431    0.0000 C   0  0  0  0  0  0  0  0  0  0  0  0
    0.3457   -5.8681    0.0000 C   0  0  0  0  0  0  0  0  0  0  0  0
   -0.3687   -6.2806    0.0000 C   0  0  0  0  0  0  0  0  0  0  0  0
   -1.0832   -6.6931    0.0000 F   0  0  0  0  0  0  0  0  0  0  0  0
   -0.7812   -5.5662    0.0000 F   0  0  0  0  0  0  0  0  0  0  0  0
    0.0438   -6.9951    0.0000 F   0  0  0  0  0  0  0  0  0  0  0  0
    1.0602   -6.2806    0.0000 C   0  0  0  0  0  0  0  0  0  0  0  0
    1.7747   -5.8681    0.0000 C   0  0  0  0  0  0  0  0  0  0  0  0
    1.7747   -5.0431    0.0000 C   0  0  0  0  0  0  0  0  0  0  0  0
    2.4891   -4.6306    0.0000 Cl  0  0  0  0  0  0  0  0  0  0  0  0
    1.0602   -2.1556    0.0000 C   0  0  0  0  0  0  0  0  0  0  0  0
    0.3457   -2.5681    0.0000 O   0  0  0  0  0  0  0  0  0  0  0  0
   -0.3687    1.1444    0.0000 C   0  0  0  0  0  0  0  0  0  0  0  0
   -1.0832    1.5568    0.0000 C   0  0  0  0  0  0  0  0  0  0  0  0
   -1.0832    2.3819    0.0000 Cl  0  0  0  0  0  0  0  0  0  0  0  0
  1  2  1  0  0  0  0
  3  2  2  0  0  0  0
  4  3  1  4  0  0  0
  4  5  2  0  0  0  0
  5  6  1  0  0  0  0
  7  6  2  0  0  0  0
  8  7  1  0  0  0  0
  8  9  1  0  0  0  0
  9 10  1  0  0  0  0
  9 11  1  0  0  0  0
  9 12  1  0  0  0  0
 13  8  2  0  0  0  0
 14 13  1  0  0  0  0
 15 14  2  0  0  0  0
  6 15  1  0  0  0  0
 15 16  1  0  0  0  0
 17  3  1  0  0  0  0
 17 18  1  0  0  0  0
 18 19  2  0  0  0  0
 19 20  1  0  0  0  0
 20 21  2  0  0  0  0
 21 22  1  0  0  0  0
 22 17  2  0  0  0  0
 23 22  1  0  0  0  0
 24 23  2  0  0  0  0
  2 24  1  0  0  0  0
 24 25  1  0  0  0  0
 25 26  2  0  0  0  0
 25 27  1  0  0  0  0
 27 28  1  0  0  0  0
 29 28  2  0  0  0  0
 30 29  1  0  0  0  0
 30 31  1  0  0  0  0
 32 30  2  0  0  0  0
 32 33  1  0  0  0  0
 33 34  1  0  0  0  0
 34 35  2  0  0  0  0
 34 36  1  0  0  0  0
 37 36  2  0  0  0  0
 38 37  1  0  0  0  0
 38 39  1  0  0  0  0
 39 40  2  0  0  0  0
 40 41  1  0  0  0  0
 41 42  2  0  0  0  0
 42 43  1  0  0  0  0
 43 38  2  0  0  0  0
 44 43  1  0  0  0  0
 45 44  1  4  0  0  0
 45 46  2  0  0  0  0
 46 47  1  0  0  0  0
 48 47  2  0  0  0  0
 49 48  1  0  0  0  0
 49 50  1  0  0  0  0
 50 51  1  0  0  0  0
 50 52  1  0  0  0  0
 50 53  1  0  0  0  0
 54 49  2  0  0  0  0
 55 54  1  0  0  0  0
 56 55  2  0  0  0  0
 47 56  1  0  0  0  0
 56 57  1  0  0  0  0
 58 44  2  0  0  0  0
 36 58  1  0  0  0  0
 58 59  1  0  0  0  0
 60 32  1  0  0  0  0
 61 60  2  0  0  0  0
 28 61  1  0  0  0  0
 61 62  1  0  0  0  0
M  END
> <RowID>
1107

> <Original_SMILES>
OC1=C(N=NC2=CC(=CC=C2Cl)C(F)(F)F)C2C=CC=CC=2C=C1C(=O)NC1=CC(Cl)=C(C=C1Cl)NC(=O)C1=CC2C=CC=CC=2C(N=NC2=CC(=CC=C2Cl)C(F)(F)F)=C1O

> <Canonical_QSARr>
OC1=C(N=NC2=CC(=CC=C2Cl)C(F)(F)F)C2C=CC=CC=2C=C1C(=O)NC1=CC(Cl)=C(C=C1Cl)NC(=O)C1=CC2C=CC=CC=2C(N=NC2=CC(=CC=C2Cl)C(F)(F)F)=C1O

> <InChI_Code_QSARr>
InChI=1S/C42H22Cl4F6N6O4/c43-27-11-9-21(41(47,48)49)15-33(27)55-57-35-23-7-3-1-5-19(23)13-25(37(35)59)39(61)53-31-17-30(46)32(18-29(31)45)54-40(62)26-14-20-6-2-4-8-24(20)36(38(26)60)58-56-34-16-22(42(50,51)52)10-12-28(34)44/h1-18,59-60H,(H,53,61)(H,54,62)

> <InChI Key_QSARr>
GEVPMCITMSGJKL-UHFFFAOYSA-N

> <Salt_Solvent>


> <Salt_Solvent_ID>
0

> <Number of connected components>
1

$$$$
Molecule_1108
  Mrv2316 01072400032D          

 18 17  0  0  0  0            999 V2000
    7.9480    5.4138    0.0000 C   0  0  0  0  0  0  0  0  0  0  0  0
    8.6625    5.0013    0.0000 C   0  0  0  0  0  0  0  0  0  0  0  0
    9.3770    5.4138    0.0000 C   0  0  0  0  0  0  0  0  0  0  0  0
   10.0915    5.0013    0.0000 C   0  0  0  0  0  0  0  0  0  0  0  0
   10.8059    5.4138    0.0000 C   0  0  0  0  0  0  0  0  0  0  0  0
   11.5204    5.0013    0.0000 C   0  0  0  0  0  0  0  0  0  0  0  0
   12.2349    5.4138    0.0000 C   0  0  0  0  0  0  0  0  0  0  0  0
   12.9493    5.0013    0.0000 C   0  0  0  0  0  0  0  0  0  0  0  0
   13.6638    5.4138    0.0000 C   0  0  0  0  0  0  0  0  0  0  0  0
   14.3783    5.0013    0.0000 C   0  0  0  0  0  0  0  0  0  0  0  0
   15.0927    5.4138    0.0000 C   0  0  0  0  0  0  0  0  0  0  0  0
   15.8072    5.0013    0.0000 C   0  0  0  0  0  0  0  0  0  0  0  0
   16.5217    5.4138    0.0000 C   0  0  0  0  0  0  0  0  0  0  0  0
   17.2362    5.0013    0.0000 C   0  0  0  0  0  0  0  0  0  0  0  0
   17.9506    5.4138    0.0000 O   0  0  0  0  0  0  0  0  0  0  0  0
   18.6651    5.0013    0.0000 C   0  0  0  0  0  0  0  0  0  0  0  0
   19.3796    5.4138    0.0000 O   0  0  0  0  0  0  0  0  0  0  0  0
   18.6651    4.1763    0.0000 Cl  0  0  0  0  0  0  0  0  0  0  0  0
  1  2  1  0  0  0  0
  2  3  1  0  0  0  0
  3  4  1  0  0  0  0
  4  5  1  0  0  0  0
  5  6  1  0  0  0  0
  6  7  1  0  0  0  0
  7  8  1  0  0  0  0
  8  9  1  0  0  0  0
  9 10  1  0  0  0  0
 10 11  1  0  0  0  0
 11 12  1  0  0  0  0
 12 13  1  0  0  0  0
 13 14  1  0  0  0  0
 14 15  1  0  0  0  0
 15 16  1  0  0  0  0
 16 17  2  0  0  0  0
 16 18  1  0  0  0  0
M  END
> <RowID>
1108

> <Original_SMILES>
CCCCCCCCCCCCCCOC(=O)Cl

> <Canonical_QSARr>
CCCCCCCCCCCCCCOC(=O)Cl

> <InChI_Code_QSARr>
InChI=1S/C15H29ClO2/c1-2-3-4-5-6-7-8-9-10-11-12-13-14-18-15(16)17/h2-14H2,1H3

> <InChI Key_QSARr>
KQHBSKZGPQPRIT-UHFFFAOYSA-N

> <Salt_Solvent>


> <Salt_Solvent_ID>
0

> <Number of connected components>
1

$$$$
Molecule_1109
  Mrv2316 01072400032D          

 19 19  0  0  0  0            999 V2000
    2.5105   -9.4624    0.0000 C   0  0  0  0  0  0  0  0  0  0  0  0
    2.9230   -8.7480    0.0000 C   0  0  0  0  0  0  0  0  0  0  0  0
    3.7480   -8.7480    0.0000 C   0  0  0  0  0  0  0  0  0  0  0  0
    4.1605   -8.0335    0.0000 C   0  0  0  0  0  0  0  0  0  0  0  0
    4.9855   -8.0335    0.0000 C   0  0  0  0  0  0  0  0  0  0  0  0
    5.3980   -7.3190    0.0000 C   0  0  0  0  0  0  0  0  0  0  0  0
    6.2230   -7.3190    0.0000 N   0  0  0  0  0  0  0  0  0  0  0  0
    6.6355   -6.6046    0.0000 S   0  0  0  0  0  0  0  0  0  0  0  0
    7.3500   -7.0171    0.0000 O   0  0  0  0  0  0  0  0  0  0  0  0
    5.9211   -6.1921    0.0000 O   0  0  0  0  0  0  0  0  0  0  0  0
    7.0480   -5.8901    0.0000 C   0  0  0  0  0  0  0  0  0  0  0  0
    7.8730   -5.8901    0.0000 C   0  0  0  0  0  0  0  0  0  0  0  0
    8.2855   -5.1756    0.0000 C   0  0  0  0  0  0  0  0  0  0  0  0
    7.8730   -4.4612    0.0000 C   0  0  0  0  0  0  0  0  0  0  0  0
    8.2855   -3.7467    0.0000 N   0  0  0  0  0  0  0  0  0  0  0  0
    7.0480   -4.4612    0.0000 C   0  0  0  0  0  0  0  0  0  0  0  0
    6.6355   -5.1756    0.0000 C   0  0  0  0  0  0  0  0  0  0  0  0
    5.3980   -8.7480    0.0000 C   0  0  0  0  0  0  0  0  0  0  0  0
    4.9855   -9.4624    0.0000 C   0  0  0  0  0  0  0  0  0  0  0  0
  1  2  1  0  0  0  0
  2  3  1  0  0  0  0
  3  4  1  0  0  0  0
  4  5  1  0  0  0  0
  5  6  1  0  0  0  0
  6  7  1  0  0  0  0
  7  8  1  0  0  0  0
  8  9  2  0  0  0  0
  8 10  2  0  0  0  0
  8 11  1  0  0  0  0
 12 11  1  0  0  0  0
 13 12  2  0  0  0  0
 14 13  1  0  0  0  0
 14 15  1  0  0  0  0
 16 14  2  0  0  0  0
 17 16  1  0  0  0  0
 11 17  2  0  0  0  0
  5 18  1  0  0  0  0
 18 19  1  0  0  0  0
M  END
> <RowID>
1109

> <Original_SMILES>
CCCCC(CNS(=O)(=O)C1C=CC(N)=CC=1)CC

> <Canonical_QSARr>
CCCCC(CNS(=O)(=O)C1C=CC(N)=CC=1)CC

> <InChI_Code_QSARr>
InChI=1S/C14H24N2O2S/c1-3-5-6-12(4-2)11-16-19(17,18)14-9-7-13(15)8-10-14/h7-10,12,16H,3-6,11,15H2,1-2H3

> <InChI Key_QSARr>
HHEXVLXMZIVFSS-UHFFFAOYSA-N

> <Salt_Solvent>


> <Salt_Solvent_ID>
0

> <Number of connected components>
1

$$$$
Molecule_1110
  Mrv2316 01072400032D          

 16 17  0  0  0  0            999 V2000
    0.7145    1.2375    0.0000 C   0  0  0  0  0  0  0  0  0  0  0  0
    1.4289    0.8250    0.0000 C   0  0  0  0  0  0  0  0  0  0  0  0
    1.4289   -0.0000    0.0000 O   0  0  0  0  0  0  0  0  0  0  0  0
    2.1434   -0.4125    0.0000 P   0  0  0  0  0  0  0  0  0  0  0  0
    2.1434   -1.2375    0.0000 C   0  0  0  0  0  0  0  0  0  0  0  0
    1.4289   -1.6500    0.0000 C   0  0  0  0  0  0  0  0  0  0  0  0
    1.4289   -2.4750    0.0000 C   0  0  0  0  0  0  0  0  0  0  0  0
    2.1434   -2.8875    0.0000 C   0  0  0  0  0  0  0  0  0  0  0  0
    2.8579   -2.4750    0.0000 C   0  0  0  0  0  0  0  0  0  0  0  0
    2.8579   -1.6500    0.0000 C   0  0  0  0  0  0  0  0  0  0  0  0
    2.8579    0.0000    0.0000 C   0  0  0  0  0  0  0  0  0  0  0  0
    3.5724   -0.4125    0.0000 C   0  0  0  0  0  0  0  0  0  0  0  0
    4.2868   -0.0000    0.0000 C   0  0  0  0  0  0  0  0  0  0  0  0
    4.2868    0.8250    0.0000 C   0  0  0  0  0  0  0  0  0  0  0  0
    3.5724    1.2375    0.0000 C   0  0  0  0  0  0  0  0  0  0  0  0
    2.8579    0.8250    0.0000 C   0  0  0  0  0  0  0  0  0  0  0  0
  1  2  1  0  0  0  0
  2  3  1  0  0  0  0
  3  4  1  0  0  0  0
  4  5  1  0  0  0  0
  6  5  1  0  0  0  0
  7  6  2  0  0  0  0
  8  7  1  0  0  0  0
  9  8  2  0  0  0  0
 10  9  1  0  0  0  0
  5 10  2  0  0  0  0
  4 11  1  0  0  0  0
 12 11  1  0  0  0  0
 13 12  2  0  0  0  0
 14 13  1  0  0  0  0
 15 14  2  0  0  0  0
 16 15  1  0  0  0  0
 11 16  2  0  0  0  0
M  END
> <RowID>
1110

> <Original_SMILES>
CCOP(C1C=CC=CC=1)C1C=CC=CC=1

> <Canonical_QSARr>
CCOP(C1C=CC=CC=1)C1C=CC=CC=1

> <InChI_Code_QSARr>
InChI=1S/C14H15OP/c1-2-15-16(13-9-5-3-6-10-13)14-11-7-4-8-12-14/h3-12H,2H2,1H3

> <InChI Key_QSARr>
JCRCPEDXAHDCAJ-UHFFFAOYSA-N

> <Salt_Solvent>


> <Salt_Solvent_ID>
0

> <Number of connected components>
1

$$$$
Molecule_1115
  Mrv2316 01072400032D          

 11 11  0  0  0  0            999 V2000
    2.5981   -1.2000    0.0000 N   0  0  0  0  0  0  0  0  0  0  0  0
    1.8836   -0.7875    0.0000 C   0  0  0  0  0  0  0  0  0  0  0  0
    1.8836    0.0375    0.0000 C   0  0  0  0  0  0  0  0  0  0  0  0
    1.1691    0.4500    0.0000 C   0  0  0  0  0  0  0  0  0  0  0  0
    1.1691    1.2750    0.0000 N   0  3  0  0  0  0  0  0  0  0  0  0
    0.4547    1.6875    0.0000 O   0  5  0  0  0  0  0  0  0  0  0  0
    1.8836    1.6875    0.0000 O   0  0  0  0  0  0  0  0  0  0  0  0
    0.4547    0.0375    0.0000 C   0  0  0  0  0  0  0  0  0  0  0  0
   -0.2598    0.4500    0.0000 N   0  0  0  0  0  0  0  0  0  0  0  0
    0.4547   -0.7875    0.0000 C   0  0  0  0  0  0  0  0  0  0  0  0
    1.1691   -1.2000    0.0000 C   0  0  0  0  0  0  0  0  0  0  0  0
  1  2  1  0  0  0  0
  3  2  2  0  0  0  0
  4  3  1  0  0  0  0
  4  5  1  0  0  0  0
  5  6  1  0  0  0  0
  5  7  2  0  0  0  0
  8  4  2  0  0  0  0
  8  9  1  0  0  0  0
 10  8  1  0  0  0  0
 11 10  2  0  0  0  0
  2 11  1  0  0  0  0
M  CHG  2   5   1   6  -1
M  END
> <RowID>
1115

> <Original_SMILES>
NC1=CC(=C(N)C=C1)[N+]([O-])=O

> <Canonical_QSARr>
NC1=CC(=C(N)C=C1)[N+]([O-])=O

> <InChI_Code_QSARr>
InChI=1S/C6H7N3O2/c7-4-1-2-5(8)6(3-4)9(10)11/h1-3H,7-8H2

> <InChI Key_QSARr>
HVHNMNGARPCGGD-UHFFFAOYSA-N

> <Salt_Solvent>


> <Salt_Solvent_ID>
0

> <Number of connected components>
1

$$$$
Molecule_1116
  Mrv2316 01072400032D          

 33 33  0  0  0  0            999 V2000
   -3.2476    5.1000    0.0000 O   0  0  0  0  0  0  0  0  0  0  0  0
   -3.2476    4.2750    0.0000 C   0  0  0  0  0  0  0  0  0  0  0  0
   -2.5331    3.8625    0.0000 C   0  0  0  0  0  0  0  0  0  0  0  0
   -2.5331    3.0375    0.0000 C   0  0  0  0  0  0  0  0  0  0  0  0
   -1.8187    2.6250    0.0000 C   0  0  0  0  0  0  0  0  0  0  0  0
   -1.8187    1.8000    0.0000 C   0  0  0  0  0  0  0  0  0  0  0  0
   -1.1042    1.3875    0.0000 C   0  0  0  0  0  0  0  0  0  0  0  0
   -1.1042    0.5625    0.0000 N   0  0  0  0  0  0  0  0  0  0  0  0
   -0.3897    0.1500    0.0000 C   0  0  0  0  0  0  0  0  0  0  0  0
   -0.3897   -0.6750    0.0000 N   0  0  0  0  0  0  0  0  0  0  0  0
    0.3248   -1.0875    0.0000 C   0  0  0  0  0  0  0  0  0  0  0  0
    0.3248   -1.9125    0.0000 N   0  0  0  0  0  0  0  0  0  0  0  0
    1.0392   -2.3250    0.0000 C   0  0  0  0  0  0  0  0  0  0  0  0
    1.0392   -3.1500    0.0000 C   0  0  0  0  0  0  0  0  0  0  0  0
    1.7537   -3.5625    0.0000 C   0  0  0  0  0  0  0  0  0  0  0  0
    1.7537   -4.3875    0.0000 C   0  0  0  0  0  0  0  0  0  0  0  0
    2.4682   -4.8000    0.0000 C   0  0  0  0  0  0  0  0  0  0  0  0
    2.4682   -5.6250    0.0000 C   0  0  0  0  0  0  0  0  0  0  0  0
    3.1826   -6.0375    0.0000 O   0  0  0  0  0  0  0  0  0  0  0  0
    1.7537   -6.0375    0.0000 O   0  0  0  0  0  0  0  0  0  0  0  0
    1.0392   -0.6750    0.0000 N   0  0  0  0  0  0  0  0  0  0  0  0
    1.0392    0.1500    0.0000 C   0  0  0  0  0  0  0  0  0  0  0  0
    1.7537    0.5625    0.0000 N   0  0  0  0  0  0  0  0  0  0  0  0
    2.4682    0.1500    0.0000 C   0  0  0  0  0  0  0  0  0  0  0  0
    3.1826    0.5625    0.0000 C   0  0  0  0  0  0  0  0  0  0  0  0
    3.8971    0.1500    0.0000 C   0  0  0  0  0  0  0  0  0  0  0  0
    4.6116    0.5625    0.0000 C   0  0  0  0  0  0  0  0  0  0  0  0
    5.3260    0.1500    0.0000 C   0  0  0  0  0  0  0  0  0  0  0  0
    6.0405    0.5625    0.0000 C   0  0  0  0  0  0  0  0  0  0  0  0
    6.0405    1.3875    0.0000 O   0  0  0  0  0  0  0  0  0  0  0  0
    6.7550    0.1500    0.0000 O   0  0  0  0  0  0  0  0  0  0  0  0
    0.3248    0.5625    0.0000 N   0  0  0  0  0  0  0  0  0  0  0  0
   -3.9621    3.8625    0.0000 O   0  0  0  0  0  0  0  0  0  0  0  0
  1  2  1  0  0  0  0
  2  3  1  0  0  0  0
  3  4  1  0  0  0  0
  4  5  1  0  0  0  0
  5  6  1  0  0  0  0
  6  7  1  0  0  0  0
  7  8  1  0  0  0  0
  8  9  1  0  0  0  0
 10  9  2  0  0  0  0
 11 10  1  0  0  0  0
 11 12  1  0  0  0  0
 12 13  1  0  0  0  0
 13 14  1  0  0  0  0
 14 15  1  0  0  0  0
 15 16  1  0  0  0  0
 16 17  1  0  0  0  0
 17 18  1  0  0  0  0
 18 19  2  0  0  0  0
 18 20  1  0  0  0  0
 21 11  2  0  0  0  0
 22 21  1  0  0  0  0
 22 23  1  0  0  0  0
 23 24  1  0  0  0  0
 24 25  1  0  0  0  0
 25 26  1  0  0  0  0
 26 27  1  0  0  0  0
 27 28  1  0  0  0  0
 28 29  1  0  0  0  0
 29 30  2  0  0  0  0
 29 31  1  0  0  0  0
 32 22  2  0  0  0  0
  9 32  1  0  0  0  0
  2 33  2  0  0  0  0
M  END
> <RowID>
1116

> <Original_SMILES>
OC(=O)CCCCCNC1N=C(NCCCCCC(O)=O)N=C(NCCCCCC(O)=O)N=1.OCCN(CCO)CCO.OCCN(CCO)CCO.OCCN(CCO)CCO

> <Canonical_QSARr>
OC(=O)CCCCCNC1N=C(NCCCCCC(O)=O)N=C(NCCCCCC(O)=O)N=1

> <InChI_Code_QSARr>
InChI=1S/C21H36N6O6/c28-16(29)10-4-1-7-13-22-19-25-20(23-14-8-2-5-11-17(30)31)27-21(26-19)24-15-9-3-6-12-18(32)33/h1-15H2,(H,28,29)(H,30,31)(H,32,33)(H3,22,23,24,25,26,27)

> <InChI Key_QSARr>
BKKWPPMEXIXECW-UHFFFAOYSA-N

> <Salt_Solvent>
OCCN(CCO)CCO

> <Salt_Solvent_ID>
3118

> <Number of connected components>
4

$$$$
Molecule_1118
  Mrv2316 01072400032D          

 25 28  0  0  0  0            999 V2000
   -5.7623    1.3353    0.0000 C   0  0  0  0  0  0  0  0  0  0  0  0
   -4.9373    1.3353    0.0000 C   0  0  0  0  0  0  0  0  0  0  0  0
   -4.5248    2.0498    0.0000 N   0  0  0  0  0  0  0  0  0  0  0  0
   -4.9373    2.7643    0.0000 C   0  0  0  0  0  0  0  0  0  0  0  0
   -4.5248    3.4788    0.0000 C   0  0  0  0  0  0  0  0  0  0  0  0
   -3.6998    2.0498    0.0000 C   0  0  0  0  0  0  0  0  0  0  0  0
   -3.2873    2.7643    0.0000 C   0  0  0  0  0  0  0  0  0  0  0  0
   -2.4623    2.7643    0.0000 C   0  0  0  0  0  0  0  0  0  0  0  0
   -2.0498    3.4788    0.0000 O   0  0  0  0  0  0  0  0  0  0  0  0
   -1.2248    3.4788    0.0000 C   0  0  0  0  0  0  0  0  0  0  0  0
   -0.8123    4.1932    0.0000 O   0  0  0  0  0  0  0  0  0  0  0  0
   -0.8123    2.7643    0.0000 C   0  0  0  0  0  0  0  0  0  0  0  0
   -1.2248    2.0498    0.0000 C   0  0  0  0  0  0  0  0  0  0  0  0
   -2.0498    2.0498    0.0000 C   0  0  0  0  0  0  0  0  0  0  0  0
   -2.4623    1.3353    0.0000 C   0  0  0  0  0  0  0  0  0  0  0  0
   -3.2873    1.3353    0.0000 C   0  0  0  0  0  0  0  0  0  0  0  0
    0.0127    2.7643    0.0000 C   0  0  0  0  0  0  0  0  0  0  0  0
    0.4976    3.4317    0.0000 N   0  0  0  0  0  0  0  0  0  0  0  0
    1.2823    3.1768    0.0000 C   0  0  0  0  0  0  0  0  0  0  0  0
    1.9967    3.5893    0.0000 C   0  0  0  0  0  0  0  0  0  0  0  0
    2.7112    3.1768    0.0000 C   0  0  0  0  0  0  0  0  0  0  0  0
    2.7112    2.3518    0.0000 C   0  0  0  0  0  0  0  0  0  0  0  0
    1.9967    1.9393    0.0000 C   0  0  0  0  0  0  0  0  0  0  0  0
    1.2823    2.3518    0.0000 C   0  0  0  0  0  0  0  0  0  0  0  0
    0.4976    2.0968    0.0000 N   0  0  0  0  0  0  0  0  0  0  0  0
  1  2  1  0  0  0  0
  2  3  1  0  0  0  0
  3  4  1  0  0  0  0
  4  5  1  0  0  0  0
  3  6  1  0  0  0  0
  7  6  1  0  0  0  0
  8  7  2  0  0  0  0
  8  9  1  0  0  0  0
  9 10  1  0  0  0  0
 10 11  2  0  0  0  0
 10 12  1  0  0  0  0
 12 13  2  0  0  0  0
 13 14  1  0  0  0  0
 14  8  1  0  0  0  0
 15 14  2  0  0  0  0
 16 15  1  0  0  0  0
  6 16  2  0  0  0  0
 12 17  1  0  0  0  0
 18 17  1  0  0  0  0
 19 18  1  0  0  0  0
 19 20  2  0  0  0  0
 20 21  1  0  0  0  0
 21 22  2  0  0  0  0
 22 23  1  0  0  0  0
 23 24  2  0  0  0  0
 24 19  1  0  0  0  0
 25 24  1  0  0  0  0
 17 25  2  0  0  0  0
M  END
> <RowID>
1118

> <Original_SMILES>
CCN(CC)C1C=C2OC(=O)C(=CC2=CC=1)C1NC2=CC=CC=C2N=1

> <Canonical_QSARr>
CCN(CC)C1C=C2OC(=O)C(=CC2=CC=1)C1NC2=CC=CC=C2N=1

> <InChI_Code_QSARr>
InChI=1S/C20H19N3O2/c1-3-23(4-2)14-10-9-13-11-15(20(24)25-18(13)12-14)19-21-16-7-5-6-8-17(16)22-19/h5-12H,3-4H2,1-2H3,(H,21,22)

> <InChI Key_QSARr>
GOLORTLGFDVFDW-UHFFFAOYSA-N

> <Salt_Solvent>


> <Salt_Solvent_ID>
0

> <Number of connected components>
1

$$$$
Molecule_1119
  Mrv2316 01072400032D          

 35 36  0  0  0  0            999 V2000
    9.9529   11.2050    0.0000 O   0  0  0  0  0  0  0  0  0  0  0  0
    9.5404   11.9195    0.0000 C   0  0  0  0  0  0  0  0  0  0  0  0
    9.9529   12.6339    0.0000 N   0  0  0  0  0  0  0  0  0  0  0  0
   10.7779   12.6339    0.0000 C   0  0  0  0  0  0  0  0  0  0  0  0
   11.1904   13.3484    0.0000 C   0  0  0  0  0  0  0  0  0  0  0  0
   12.0154   13.3484    0.0000 C   0  0  0  0  0  0  0  0  0  0  0  0
   12.4279   14.0629    0.0000 C   0  0  0  0  0  0  0  0  0  0  0  0
    9.5404   13.3484    0.0000 C   0  0  0  0  0  0  0  0  0  0  0  0
    9.9529   14.0629    0.0000 O   0  0  0  0  0  0  0  0  0  0  0  0
    8.7154   13.3484    0.0000 C   0  0  0  0  0  0  0  0  0  0  0  0
    8.3029   14.0629    0.0000 C   0  0  0  0  0  0  0  0  0  0  0  0
    7.8904   14.7773    0.0000 N   0  0  0  0  0  0  0  0  0  0  0  0
    8.3029   12.6339    0.0000 C   0  0  0  0  0  0  0  0  0  0  0  0
    7.4779   12.6339    0.0000 C   0  0  0  0  0  0  0  0  0  0  0  0
    8.7154   11.9195    0.0000 C   0  0  0  0  0  0  0  0  0  0  0  0
    8.3029   11.2050    0.0000 N   0  0  0  0  0  0  0  0  0  0  0  0
    7.4779   11.2050    0.0000 N   0  0  0  0  0  0  0  0  0  0  0  0
    7.0654   10.4905    0.0000 C   0  0  0  0  0  0  0  0  0  0  0  0
    6.2404   10.4905    0.0000 C   0  0  0  0  0  0  0  0  0  0  0  0
    5.8279    9.7760    0.0000 C   0  0  0  0  0  0  0  0  0  0  0  0
    6.2404    9.0616    0.0000 C   0  0  0  0  0  0  0  0  0  0  0  0
    5.8279    8.3471    0.0000 S   0  0  0  0  0  0  0  0  0  0  0  0
    5.1134    8.7596    0.0000 O   0  0  0  0  0  0  0  0  0  0  0  0
    6.5424    7.9346    0.0000 O   0  0  0  0  0  0  0  0  0  0  0  0
    5.4154    7.6326    0.0000 N   0  0  0  0  0  0  0  0  0  0  0  0
    4.5904    7.6326    0.0000 C   0  0  0  0  0  0  0  0  0  0  0  0
    4.1779    6.9182    0.0000 C   0  0  0  0  0  0  0  0  0  0  0  0
    3.3529    6.9182    0.0000 C   0  0  0  0  0  0  0  0  0  0  0  0
    2.9404    6.2037    0.0000 C   0  0  0  0  0  0  0  0  0  0  0  0
    2.1154    6.2037    0.0000 C   0  0  0  0  0  0  0  0  0  0  0  0
    1.7029    5.4892    0.0000 C   0  0  0  0  0  0  0  0  0  0  0  0
    4.5904    6.2037    0.0000 C   0  0  0  0  0  0  0  0  0  0  0  0
    4.1779    5.4892    0.0000 C   0  0  0  0  0  0  0  0  0  0  0  0
    7.0654    9.0616    0.0000 C   0  0  0  0  0  0  0  0  0  0  0  0
    7.4779    9.7760    0.0000 C   0  0  0  0  0  0  0  0  0  0  0  0
  1  2  2  0  0  0  0
  3  2  1  0  0  0  0
  3  4  1  0  0  0  0
  4  5  1  0  0  0  0
  5  6  1  0  0  0  0
  6  7  1  0  0  0  0
  8  3  1  0  0  0  0
  8  9  2  0  0  0  0
 10  8  1  0  0  0  0
 10 11  1  0  0  0  0
 11 12  3  0  0  0  0
 13 10  2  0  0  0  0
 13 14  1  0  0  0  0
 15 13  1  0  0  0  0
  2 15  1  0  0  0  0
 16 15  1  4  0  0  0
 16 17  2  0  0  0  0
 17 18  1  0  0  0  0
 19 18  1  0  0  0  0
 20 19  2  0  0  0  0
 21 20  1  0  0  0  0
 21 22  1  0  0  0  0
 22 23  2  0  0  0  0
 22 24  2  0  0  0  0
 22 25  1  0  0  0  0
 25 26  1  0  0  0  0
 26 27  1  0  0  0  0
 27 28  1  0  0  0  0
 28 29  1  0  0  0  0
 29 30  1  0  0  0  0
 30 31  1  0  0  0  0
 27 32  1  0  0  0  0
 32 33  1  0  0  0  0
 34 21  2  0  0  0  0
 35 34  1  0  0  0  0
 18 35  2  0  0  0  0
M  END
> <RowID>
1119

> <Original_SMILES>
CC1C(N=NC2=CC=C(C=C2)S(=O)(=O)NCC(CCCC)CC)=C(O)N(CCCC)C(=O)C=1C#N

> <Canonical_QSARr>
CC1C(N=NC2=CC=C(C=C2)S(=O)(=O)NCC(CCCC)CC)C(=O)N(CCCC)C(=O)C=1C#N

> <InChI_Code_QSARr>
InChI=1S/C25H35N5O4S/c1-5-8-10-19(7-3)17-27-35(33,34)21-13-11-20(12-14-21)28-29-23-18(4)22(16-26)24(31)30(25(23)32)15-9-6-2/h11-14,19,23,27H,5-10,15,17H2,1-4H3

> <InChI Key_QSARr>
CYBSOZQIUIYJCP-UHFFFAOYSA-N

> <Salt_Solvent>


> <Salt_Solvent_ID>
0

> <Number of connected components>
1

$$$$
Molecule_1120
  Mrv2316 01072400032D          

  9  9  0  0  0  0            999 V2000
    0.7270    0.6243    0.0000 C   0  0  0  0  0  0  0  0  0  0  0  0
    0.9819    1.4090    0.0000 N   0  0  0  0  0  0  0  0  0  0  0  0
    0.3145    1.8939    0.0000 C   0  0  0  0  0  0  0  0  0  0  0  0
    0.3145    2.7189    0.0000 O   0  0  0  0  0  0  0  0  0  0  0  0
   -0.3530    1.4090    0.0000 N   0  0  0  0  0  0  0  0  0  0  0  0
   -0.0980    0.6243    0.0000 N   0  0  0  0  0  0  0  0  0  0  0  0
    1.2119   -0.0431    0.0000 N   0  3  0  0  0  0  0  0  0  0  0  0
    2.0324    0.0431    0.0000 O   0  0  0  0  0  0  0  0  0  0  0  0
    0.8763   -0.7968    0.0000 O   0  5  0  0  0  0  0  0  0  0  0  0
  2  1  1  0  0  0  0
  3  2  1  0  0  0  0
  3  4  2  0  0  0  0
  5  3  1  0  0  0  0
  6  5  2  0  0  0  0
  1  6  1  0  0  0  0
  1  7  1  0  0  0  0
  7  8  2  0  0  0  0
  7  9  1  0  0  0  0
M  CHG  2   7   1   9  -1
M  END
> <RowID>
1120

> <Original_SMILES>
[O-][N+](=O)C1NC(=O)NN=1

> <Canonical_QSARr>
[O-][N+](=O)C1NC(=O)N=N1

> <InChI_Code_QSARr>
InChI=1S/C2H2N4O3/c7-2-3-1(4-5-2)6(8)9/h1H,(H,3,7)

> <InChI Key_QSARr>
RPTPNBANJWZYGR-UHFFFAOYSA-N

> <Salt_Solvent>


> <Salt_Solvent_ID>
0

> <Number of connected components>
1

$$$$
Molecule_1121
  Mrv2316 01072400032D          

 46 49  0  0  0  0            999 V2000
    1.7706   -9.9538    0.0000 C   0  0  0  0  0  0  0  0  0  0  0  0
    1.7706   -9.1288    0.0000 C   0  0  0  0  0  0  0  0  0  0  0  0
    1.0562   -8.7163    0.0000 O   0  0  0  0  0  0  0  0  0  0  0  0
    2.4851   -8.7163    0.0000 C   0  0  0  0  0  0  0  0  0  0  0  0
    2.4851   -7.8913    0.0000 N   0  0  0  0  0  0  0  0  0  0  0  0
    3.1996   -7.4788    0.0000 N   0  0  0  0  0  0  0  0  0  0  0  0
    3.1996   -6.6538    0.0000 C   0  0  0  0  0  0  0  0  0  0  0  0
    3.9141   -6.2413    0.0000 C   0  0  0  0  0  0  0  0  0  0  0  0
    3.9141   -5.4163    0.0000 C   0  0  0  0  0  0  0  0  0  0  0  0
    3.1996   -5.0038    0.0000 C   0  0  0  0  0  0  0  0  0  0  0  0
    3.1996   -4.1788    0.0000 C   0  0  0  0  0  0  0  0  0  0  0  0
    3.9141   -3.7663    0.0000 C   0  0  0  0  0  0  0  0  0  0  0  0
    3.9141   -2.9413    0.0000 C   0  0  0  0  0  0  0  0  0  0  0  0
    4.6285   -2.5288    0.0000 Cl  0  0  0  0  0  0  0  0  0  0  0  0
    3.1996   -2.5288    0.0000 C   0  0  0  0  0  0  0  0  0  0  0  0
    3.1996   -1.7038    0.0000 N   0  0  0  0  0  0  0  0  0  0  0  0
    3.9141   -1.2913    0.0000 N   0  0  0  0  0  0  0  0  0  0  0  0
    3.9141   -0.4663    0.0000 C   0  0  0  0  0  0  0  0  0  0  0  0
    4.6285   -0.0538    0.0000 C   0  0  0  0  0  0  0  0  0  0  0  0
    5.3430   -0.4663    0.0000 O   0  0  0  0  0  0  0  0  0  0  0  0
    4.6285    0.7712    0.0000 N   0  0  0  0  0  0  0  0  0  0  0  0
    5.3430    1.1837    0.0000 C   0  0  0  0  0  0  0  0  0  0  0  0
    6.0575    0.7712    0.0000 C   0  0  0  0  0  0  0  0  0  0  0  0
    6.7719    1.1837    0.0000 C   0  0  0  0  0  0  0  0  0  0  0  0
    6.7719    2.0087    0.0000 C   0  0  0  0  0  0  0  0  0  0  0  0
    6.0575    2.4212    0.0000 C   0  0  0  0  0  0  0  0  0  0  0  0
    5.3430    2.0087    0.0000 C   0  0  0  0  0  0  0  0  0  0  0  0
    4.6285    2.4212    0.0000 C   0  0  0  0  0  0  0  0  0  0  0  0
    3.1996   -0.0538    0.0000 C   0  0  0  0  0  0  0  0  0  0  0  0
    2.4851   -0.4663    0.0000 C   0  0  0  0  0  0  0  0  0  0  0  0
    3.1996    0.7712    0.0000 O   0  0  0  0  0  0  0  0  0  0  0  0
    2.4851   -2.9413    0.0000 C   0  0  0  0  0  0  0  0  0  0  0  0
    2.4851   -3.7663    0.0000 C   0  0  0  0  0  0  0  0  0  0  0  0
    2.4851   -5.4163    0.0000 C   0  0  0  0  0  0  0  0  0  0  0  0
    2.4851   -6.2413    0.0000 C   0  0  0  0  0  0  0  0  0  0  0  0
    1.7706   -6.6538    0.0000 Cl  0  0  0  0  0  0  0  0  0  0  0  0
    3.1996   -9.1288    0.0000 C   0  0  0  0  0  0  0  0  0  0  0  0
    3.9141   -8.7163    0.0000 O   0  0  0  0  0  0  0  0  0  0  0  0
    3.1996   -9.9538    0.0000 N   0  0  0  0  0  0  0  0  0  0  0  0
    3.9141  -10.3663    0.0000 C   0  0  0  0  0  0  0  0  0  0  0  0
    3.9141  -11.1913    0.0000 C   0  0  0  0  0  0  0  0  0  0  0  0
    4.6285  -11.6038    0.0000 C   0  0  0  0  0  0  0  0  0  0  0  0
    5.3430  -11.1913    0.0000 C   0  0  0  0  0  0  0  0  0  0  0  0
    5.3430  -10.3663    0.0000 C   0  0  0  0  0  0  0  0  0  0  0  0
    4.6285   -9.9538    0.0000 C   0  0  0  0  0  0  0  0  0  0  0  0
    4.6285   -9.1288    0.0000 C   0  0  0  0  0  0  0  0  0  0  0  0
  1  2  1  0  0  0  0
  2  3  2  0  0  0  0
  2  4  1  0  0  0  0
  5  4  1  4  0  0  0
  5  6  2  0  0  0  0
  6  7  1  0  0  0  0
  8  7  1  0  0  0  0
  9  8  2  0  0  0  0
 10  9  1  0  0  0  0
 10 11  1  0  0  0  0
 12 11  2  0  0  0  0
 13 12  1  0  0  0  0
 13 14  1  0  0  0  0
 15 13  2  0  0  0  0
 16 15  1  4  0  0  0
 16 17  2  0  0  0  0
 17 18  1  0  0  0  0
 18 19  1  0  0  0  0
 19 20  2  0  0  0  0
 19 21  1  0  0  0  0
 21 22  1  0  0  0  0
 23 22  1  0  0  0  0
 24 23  2  0  0  0  0
 25 24  1  0  0  0  0
 26 25  2  0  0  0  0
 27 26  1  0  0  0  0
 22 27  2  0  0  0  0
 27 28  1  0  0  0  0
 18 29  1  0  0  0  0
 29 30  1  0  0  0  0
 29 31  2  0  0  0  0
 32 15  1  0  0  0  0
 33 32  2  0  0  0  0
 11 33  1  0  0  0  0
 34 10  2  0  0  0  0
 35 34  1  0  0  0  0
  7 35  2  0  0  0  0
 35 36  1  0  0  0  0
  4 37  1  0  0  0  0
 37 38  2  0  0  0  0
 37 39  1  0  0  0  0
 39 40  1  0  0  0  0
 41 40  1  0  0  0  0
 42 41  2  0  0  0  0
 43 42  1  0  0  0  0
 44 43  2  0  0  0  0
 45 44  1  0  0  0  0
 40 45  2  0  0  0  0
 45 46  1  0  0  0  0
M  END
> <RowID>
1121

> <Original_SMILES>
CC(=O)C(N=NC1C=CC(=CC=1Cl)C1=CC(Cl)=C(C=C1)N=NC(C(=O)NC1C=CC=CC=1C)C(C)=O)C(=O)NC1C=CC=CC=1C

> <Canonical_QSARr>
CC(=O)C(N=NC1C=CC(=CC=1Cl)C1=CC(Cl)=C(C=C1)N=NC(C(=O)NC1C=CC=CC=1C)C(C)=O)C(=O)NC1C=CC=CC=1C

> <InChI_Code_QSARr>
InChI=1S/C34H30Cl2N6O4/c1-19-9-5-7-11-27(19)37-33(45)31(21(3)43)41-39-29-15-13-23(17-25(29)35)24-14-16-30(26(36)18-24)40-42-32(22(4)44)34(46)38-28-12-8-6-10-20(28)2/h5-18,31-32H,1-4H3,(H,37,45)(H,38,46)

> <InChI Key_QSARr>
LQZFGPJGXVFSTR-UHFFFAOYSA-N

> <Salt_Solvent>


> <Salt_Solvent_ID>
0

> <Number of connected components>
1

$$$$
Molecule_1122
  Mrv2316 01072400032D          

  5  5  0  0  0  0            999 V2000
   -0.8888   -0.2382    0.0000 C   0  0  0  0  0  0  0  0  0  0  0  0
   -0.1743    0.1743    0.0000 C   0  0  0  0  0  0  0  0  0  0  0  0
    0.6507    0.1743    0.0000 O   0  0  0  0  0  0  0  0  0  0  0  0
    0.2382    0.8888    0.0000 C   0  0  0  0  0  0  0  0  0  0  0  0
    0.2382    1.7138    0.0000 C   0  0  0  0  0  0  0  0  0  0  0  0
  1  2  1  0  0  0  0
  3  2  1  0  0  0  0
  4  3  1  0  0  0  0
  2  4  1  0  0  0  0
  4  5  1  0  0  0  0
M  END
> <RowID>
1122

> <Original_SMILES>
CC1OC1C

> <Canonical_QSARr>
CC1OC1C

> <InChI_Code_QSARr>
InChI=1S/C4H8O/c1-3-4(2)5-3/h3-4H,1-2H3

> <InChI Key_QSARr>
PQXKWPLDPFFDJP-UHFFFAOYSA-N

> <Salt_Solvent>


> <Salt_Solvent_ID>
0

> <Number of connected components>
1

$$$$
Molecule_1123
  Mrv2316 01072400032D          

 13 12  0  0  0  0            999 V2000
    0.5230   -1.9520    0.0000 C   0  0  0  0  0  0  0  0  0  0  0  0
    0.5230   -1.1270    0.0000 C   0  0  0  0  0  0  0  0  0  0  0  0
    1.2375   -0.7145    0.0000 C   0  0  0  0  0  0  0  0  0  0  0  0
    1.9520   -0.3020    0.0000 C   0  0  0  0  0  0  0  0  0  0  0  0
    1.9520    0.5230    0.0000 C   0  0  0  0  0  0  0  0  0  0  0  0
    2.6664    0.9355    0.0000 C   0  0  0  0  0  0  0  0  0  0  0  0
    2.6664    1.7605    0.0000 O   0  0  0  0  0  0  0  0  0  0  0  0
    1.6500   -1.4289    0.0000 C   0  0  0  0  0  0  0  0  0  0  0  0
    2.4750   -1.4289    0.0000 O   0  0  0  0  0  0  0  0  0  0  0  0
    1.2375   -2.1434    0.0000 O   0  0  0  0  0  0  0  0  0  0  0  0
    0.8250   -0.0000    0.0000 C   0  0  0  0  0  0  0  0  0  0  0  0
    1.2375    0.7145    0.0000 O   0  0  0  0  0  0  0  0  0  0  0  0
   -0.0000   -0.0000    0.0000 O   0  0  0  0  0  0  0  0  0  0  0  0
  1  2  1  0  0  0  0
  2  3  1  0  0  0  0
  3  4  1  0  0  0  0
  4  5  1  0  0  0  0
  5  6  1  0  0  0  0
  6  7  1  0  0  0  0
  3  8  1  0  0  0  0
  8  9  1  0  0  0  0
  8 10  2  0  0  0  0
  3 11  1  0  0  0  0
 11 12  1  0  0  0  0
 11 13  2  0  0  0  0
M  END
> <RowID>
1123

> <Original_SMILES>
CCC(CCCO)(C(O)=O)C(O)=O

> <Canonical_QSARr>
CCC(CCCO)(C(O)=O)C(O)=O

> <InChI_Code_QSARr>
InChI=1S/C8H14O5/c1-2-8(6(10)11,7(12)13)4-3-5-9/h9H,2-5H2,1H3,(H,10,11)(H,12,13)

> <InChI Key_QSARr>
LZLZSSGOHJSSBO-UHFFFAOYSA-N

> <Salt_Solvent>


> <Salt_Solvent_ID>
0

> <Number of connected components>
1

$$$$
Molecule_1124
  Mrv2316 01072400032D          

 10 10  0  0  0  0            999 V2000
    0.1842    1.8695    0.0000 C   0  0  0  0  0  0  0  0  0  0  0  0
    0.7145    1.2375    0.0000 C   0  0  0  0  0  0  0  0  0  0  0  0
    1.2448    1.8695    0.0000 C   0  0  0  0  0  0  0  0  0  0  0  0
   -0.0000    0.8250    0.0000 O   0  0  0  0  0  0  0  0  0  0  0  0
   -0.0000    0.0000    0.0000 C   0  0  0  0  0  0  0  0  0  0  0  0
   -0.7145   -0.4125    0.0000 O   0  0  0  0  0  0  0  0  0  0  0  0
    0.7145   -0.4125    0.0000 C   0  0  0  0  0  0  0  0  0  0  0  0
    1.4289    0.0000    0.0000 C   0  0  0  0  0  0  0  0  0  0  0  0
    2.1434   -0.4125    0.0000 O   0  0  0  0  0  0  0  0  0  0  0  0
    1.4289    0.8250    0.0000 O   0  0  0  0  0  0  0  0  0  0  0  0
  1  2  1  0  0  0  0
  2  3  1  0  0  0  0
  4  2  1  0  0  0  0
  5  4  1  0  0  0  0
  5  6  2  0  0  0  0
  7  5  1  0  0  0  0
  8  7  1  0  0  0  0
  8  9  2  0  0  0  0
 10  8  1  0  0  0  0
  2 10  1  0  0  0  0
M  END
> <RowID>
1124

> <Original_SMILES>
CC1(C)OC(=O)CC(=O)O1

> <Canonical_QSARr>
CC1(C)OC(=O)CC(=O)O1

> <InChI_Code_QSARr>
InChI=1S/C6H8O4/c1-6(2)9-4(7)3-5(8)10-6/h3H2,1-2H3

> <InChI Key_QSARr>
GXHFUVWIGNLZSC-UHFFFAOYSA-N

> <Salt_Solvent>


> <Salt_Solvent_ID>
0

> <Number of connected components>
1

$$$$
Molecule_1125
  Mrv2316 01072400032D          

  4  3  0  0  0  0            999 V2000
    1.2375    0.7145    0.0000 O   0  0  0  0  0  0  0  0  0  0  0  0
    0.8250   -0.0000    0.0000 C   0  0  0  0  0  0  0  0  0  0  0  0
    1.2375   -0.7145    0.0000 O   0  0  0  0  0  0  0  0  0  0  0  0
    0.0000   -0.0000    0.0000 C   0  0  0  0  0  0  0  0  0  0  0  0
  1  2  1  0  0  0  0
  2  3  2  0  0  0  0
  2  4  1  0  0  0  0
M  END
> <RowID>
1125

> <Original_SMILES>
[Cr+3].CC([O-])=O.CC([O-])=O.CC([O-])=O

> <Canonical_QSARr>
CC(O)=O

> <InChI_Code_QSARr>
InChI=1S/C2H4O2/c1-2(3)4/h1H3,(H,3,4)

> <InChI Key_QSARr>
QTBSBXVTEAMEQO-UHFFFAOYSA-N

> <Salt_Solvent>
[Cr+3]

> <Salt_Solvent_ID>
240

> <Number of connected components>
4

$$$$
Molecule_1126
  Mrv2316 01072400032D          

  5  4  0  0  0  0            999 V2000
    2.0625   -0.7145    0.0000 O   0  0  0  0  0  0  0  0  0  0  0  0
    1.2375   -0.7145    0.0000 S   0  0  0  0  0  0  0  0  0  0  0  0
    0.8250   -1.4289    0.0000 O   0  0  0  0  0  0  0  0  0  0  0  0
    0.8250   -0.0000    0.0000 C   0  0  0  0  0  0  0  0  0  0  0  0
    0.0000   -0.0000    0.0000 O   0  0  0  0  0  0  0  0  0  0  0  0
  1  2  1  0  0  0  0
  2  3  2  0  0  0  0
  2  4  1  0  0  0  0
  4  5  1  0  0  0  0
M  END
> <RowID>
1126

> <Original_SMILES>
[Zn+2].[O-]S(=O)CO.[O-]S(=O)CO

> <Canonical_QSARr>
OCS(O)=O

> <InChI_Code_QSARr>
InChI=1S/CH4O3S/c2-1-5(3)4/h2H,1H2,(H,3,4)

> <InChI Key_QSARr>
SBGKURINHGJRFN-UHFFFAOYSA-N

> <Salt_Solvent>
[Zn+2]

> <Salt_Solvent_ID>
300

> <Number of connected components>
3

$$$$
Molecule_1127
  Mrv2316 01072400032D          

 10  9  0  0  0  0            999 V2000
   -0.1914    0.7145    0.0000 O   0  0  0  0  0  0  0  0  0  0  0  0
    0.5230    1.1270    0.0000 C   0  0  0  0  0  0  0  0  0  0  0  0
    0.5230    1.9520    0.0000 O   0  0  0  0  0  0  0  0  0  0  0  0
    1.2375    0.7145    0.0000 C   0  0  0  0  0  0  0  0  0  0  0  0
    1.9520    1.1270    0.0000 C   0  0  0  0  0  0  0  0  0  0  0  0
    1.9520    1.9520    0.0000 O   0  0  0  0  0  0  0  0  0  0  0  0
    2.6664    0.7145    0.0000 C   0  0  0  0  0  0  0  0  0  0  0  0
    3.3809    1.1270    0.0000 O   0  0  0  0  0  0  0  0  0  0  0  0
    2.6664   -0.1105    0.0000 O   0  0  0  0  0  0  0  0  0  0  0  0
    1.2375   -0.1105    0.0000 O   0  0  0  0  0  0  0  0  0  0  0  0
  1  2  1  0  0  0  0
  2  3  2  0  0  0  0
  2  4  1  0  0  0  0
  4  5  1  0  0  0  0
  5  6  1  0  0  0  0
  5  7  1  0  0  0  0
  7  8  1  0  0  0  0
  7  9  2  0  0  0  0
  4 10  1  0  0  0  0
M  END
> <RowID>
1127

> <Original_SMILES>
[Ca+2].[O-]C(=O)C(O)C(O)C([O-])=O

> <Canonical_QSARr>
OC(=O)C(O)C(O)C(O)=O

> <InChI_Code_QSARr>
InChI=1S/C4H6O6/c5-1(3(7)8)2(6)4(9)10/h1-2,5-6H,(H,7,8)(H,9,10)

> <InChI Key_QSARr>
FEWJPZIEWOKRBE-UHFFFAOYSA-N

> <Salt_Solvent>
[Ca+2]

> <Salt_Solvent_ID>
200

> <Number of connected components>
2

$$$$
Molecule_1128
  Mrv2316 01072400032D          

  6  5  0  0  0  0            999 V2000
    0.8250    1.4289    0.0000 O   0  0  0  0  0  0  0  0  0  0  0  0
    1.2375    0.7145    0.0000 C   0  0  0  0  0  0  0  0  0  0  0  0
    2.0625    0.7145    0.0000 O   0  0  0  0  0  0  0  0  0  0  0  0
    0.8250   -0.0000    0.0000 C   0  0  0  0  0  0  0  0  0  0  0  0
    1.2375   -0.7145    0.0000 O   0  0  0  0  0  0  0  0  0  0  0  0
    0.0000   -0.0000    0.0000 O   0  0  0  0  0  0  0  0  0  0  0  0
  1  2  1  0  0  0  0
  2  3  2  0  0  0  0
  2  4  1  0  0  0  0
  4  5  2  0  0  0  0
  4  6  1  0  0  0  0
M  END
> <RowID>
1128

> <Original_SMILES>
[K+].[O-]C(=O)C(O)=O

> <Canonical_QSARr>
OC(=O)C(O)=O

> <InChI_Code_QSARr>
InChI=1S/C2H2O4/c3-1(4)2(5)6/h(H,3,4)(H,5,6)

> <InChI Key_QSARr>
MUBZPKHOEPUJKR-UHFFFAOYSA-N

> <Salt_Solvent>
[K+]

> <Salt_Solvent_ID>
190

> <Number of connected components>
2

$$$$
Molecule_1130
  Mrv2316 01072400032D          

 10  9  0  0  0  0            999 V2000
    2.9980    2.5559    0.0000 C   0  0  0  0  0  0  0  0  0  0  0  0
    3.7125    2.1434    0.0000 C   0  0  0  0  0  0  0  0  0  0  0  0
    4.4270    2.5559    0.0000 O   0  0  0  0  0  0  0  0  0  0  0  0
    5.1414    2.1434    0.0000 C   0  0  0  0  0  0  0  0  0  0  0  0
    5.1414    1.3184    0.0000 O   0  0  0  0  0  0  0  0  0  0  0  0
    5.8559    2.5559    0.0000 C   0  0  0  0  0  0  0  0  0  0  0  0
    6.5704    2.1434    0.0000 C   0  0  0  0  0  0  0  0  0  0  0  0
    7.2848    2.5559    0.0000 O   0  0  0  0  0  0  0  0  0  0  0  0
    7.9993    2.1434    0.0000 C   0  0  0  0  0  0  0  0  0  0  0  0
    8.7138    2.5559    0.0000 C   0  0  0  0  0  0  0  0  0  0  0  0
  1  2  1  0  0  0  0
  2  3  1  0  0  0  0
  3  4  1  0  0  0  0
  4  5  2  0  0  0  0
  4  6  1  0  0  0  0
  6  7  1  0  0  0  0
  7  8  1  0  0  0  0
  8  9  1  0  0  0  0
  9 10  1  0  0  0  0
M  END
> <RowID>
1130

> <Original_SMILES>
CCOC(=O)CCOCC

> <Canonical_QSARr>
CCOC(=O)CCOCC

> <InChI_Code_QSARr>
InChI=1S/C7H14O3/c1-3-9-6-5-7(8)10-4-2/h3-6H2,1-2H3

> <InChI Key_QSARr>
BHXIWUJLHYHGSJ-UHFFFAOYSA-N

> <Salt_Solvent>


> <Salt_Solvent_ID>
0

> <Number of connected components>
1

$$$$
Molecule_1131
  Mrv2316 01072400032D          

 11 12  0  0  0  0            999 V2000
    0.6255    0.9669    0.0000 C   0  0  0  0  0  0  0  0  0  0  0  0
    1.2680    0.1194    0.0000 C   0  0  0  0  0  0  0  0  0  0  0  0
    0.6056   -0.7463    0.0000 C   0  0  0  0  0  0  0  0  0  0  0  0
    1.0617    0.9444    0.0000 C   0  0  0  0  0  0  0  0  0  0  0  0
    0.3473    0.5319    0.0000 C   0  0  0  0  0  0  0  0  0  0  0  0
    0.3473   -0.2931    0.0000 C   0  0  0  0  0  0  0  0  0  0  0  0
   -0.4938   -0.5427    0.0000 O   0  0  0  0  0  0  0  0  0  0  0  0
    1.0617   -0.7056    0.0000 C   0  0  0  0  0  0  0  0  0  0  0  0
    1.2513   -1.5661    0.0000 C   0  0  0  0  0  0  0  0  0  0  0  0
    1.7762   -0.2931    0.0000 C   0  0  0  0  0  0  0  0  0  0  0  0
    1.7762    0.5319    0.0000 C   0  0  0  0  0  0  0  0  0  0  0  0
  1  2  1  0  0  0  0
  2  3  1  0  0  0  0
  4  2  1  0  0  0  0
  4  5  1  0  0  0  0
  5  6  1  0  0  0  0
  6  7  2  0  0  0  0
  6  8  1  0  0  0  0
  2  8  1  0  0  0  0
  8  9  1  0  0  0  0
  8 10  1  0  0  0  0
 10 11  1  0  0  0  0
 11  4  1  0  0  0  0
M  END
> <RowID>
1131

> <Original_SMILES>
CC1(C)C2CC(=O)C1(C)CC2

> <Canonical_QSARr>
CC1(C)C2CC(=O)C1(C)CC2

> <InChI_Code_QSARr>
InChI=1S/C10H16O/c1-9(2)7-4-5-10(9,3)8(11)6-7/h7H,4-6H2,1-3H3

> <InChI Key_QSARr>
DSSYKIVIOFKYAU-UHFFFAOYSA-N

> <Salt_Solvent>


> <Salt_Solvent_ID>
0

> <Number of connected components>
1

$$$$
Molecule_1132
  Mrv2316 01072400032D          

  6  5  0  0  0  0            999 V2000
   -0.1914    0.7145    0.0000 C   0  0  0  0  0  0  0  0  0  0  0  0
    0.5230    1.1270    0.0000 O   0  0  0  0  0  0  0  0  0  0  0  0
    1.2375    0.7145    0.0000 C   0  0  0  0  0  0  0  0  0  0  0  0
    1.9520    1.1270    0.0000 C   0  0  0  0  0  0  0  0  0  0  0  0
    2.6664    0.7145    0.0000 O   0  0  0  0  0  0  0  0  0  0  0  0
    3.3809    1.1270    0.0000 C   0  0  0  0  0  0  0  0  0  0  0  0
  1  2  1  0  0  0  0
  2  3  1  0  0  0  0
  3  4  1  0  0  0  0
  4  5  1  0  0  0  0
  5  6  1  0  0  0  0
M  END
> <RowID>
1132

> <Original_SMILES>
COCCOC

> <Canonical_QSARr>
COCCOC

> <InChI_Code_QSARr>
InChI=1S/C4H10O2/c1-5-3-4-6-2/h3-4H2,1-2H3

> <InChI Key_QSARr>
XTHFKEDIFFGKHM-UHFFFAOYSA-N

> <Salt_Solvent>


> <Salt_Solvent_ID>
0

> <Number of connected components>
1

$$$$
Molecule_1133
  Mrv2316 01072400032D          

 12 12  0  0  0  0            999 V2000
    0.6725   -2.8381    0.0000 C   0  0  0  0  0  0  0  0  0  0  0  0
    1.3870   -2.4256    0.0000 C   0  0  0  0  0  0  0  0  0  0  0  0
    1.3870   -1.6006    0.0000 C   0  0  0  0  0  0  0  0  0  0  0  0
    2.1015   -2.8381    0.0000 C   0  0  0  0  0  0  0  0  0  0  0  0
    2.1015   -3.6631    0.0000 O   0  0  0  0  0  0  0  0  0  0  0  0
    2.8159   -2.4256    0.0000 O   0  0  0  0  0  0  0  0  0  0  0  0
    3.5304   -2.8381    0.0000 C   0  0  0  0  0  0  0  0  0  0  0  0
    4.2449   -2.4256    0.0000 C   0  0  0  0  0  0  0  0  0  0  0  0
    4.9986   -2.7612    0.0000 C   0  0  0  0  0  0  0  0  0  0  0  0
    5.5506   -2.1481    0.0000 C   0  0  0  0  0  0  0  0  0  0  0  0
    5.1381   -1.4336    0.0000 C   0  0  0  0  0  0  0  0  0  0  0  0
    4.3311   -1.6051    0.0000 O   0  0  0  0  0  0  0  0  0  0  0  0
  1  2  1  0  0  0  0
  2  3  2  0  0  0  0
  2  4  1  0  0  0  0
  4  5  2  0  0  0  0
  4  6  1  0  0  0  0
  6  7  1  0  0  0  0
  7  8  1  0  0  0  0
  9  8  1  0  0  0  0
 10  9  1  0  0  0  0
 11 10  1  0  0  0  0
 12 11  1  0  0  0  0
  8 12  1  0  0  0  0
M  END
> <RowID>
1133

> <Original_SMILES>
CC(=C)C(=O)OCC1CCCO1

> <Canonical_QSARr>
CC(=C)C(=O)OCC1CCCO1

> <InChI_Code_QSARr>
InChI=1S/C9H14O3/c1-7(2)9(10)12-6-8-4-3-5-11-8/h8H,1,3-6H2,2H3

> <InChI Key_QSARr>
LCXXNKZQVOXMEH-UHFFFAOYSA-N

> <Salt_Solvent>


> <Salt_Solvent_ID>
0

> <Number of connected components>
1

$$$$
Molecule_1134
  Mrv2316 01072400032D          

  4  3  0  0  0  0            999 V2000
    1.2375    0.7145    0.0000 N   0  0  0  0  0  0  0  0  0  0  0  0
    0.8250   -0.0000    0.0000 C   0  0  0  0  0  0  0  0  0  0  0  0
    1.2375   -0.7145    0.0000 O   0  0  0  0  0  0  0  0  0  0  0  0
    0.0000   -0.0000    0.0000 N   0  0  0  0  0  0  0  0  0  0  0  0
  1  2  1  0  0  0  0
  2  3  2  0  0  0  0
  2  4  1  0  0  0  0
M  END
> <RowID>
1134

> <Original_SMILES>
NC(N)=O.OP(O)(O)=O

> <Canonical_QSARr>
NC(N)=O

> <InChI_Code_QSARr>
InChI=1S/CH4N2O/c2-1(3)4/h(H4,2,3,4)

> <InChI Key_QSARr>
XSQUKJJJFZCRTK-UHFFFAOYSA-N

> <Salt_Solvent>
OP(=O)(O)O

> <Salt_Solvent_ID>
2041

> <Number of connected components>
2

$$$$
Molecule_1135
  Mrv2316 01072400032D          

  9  9  0  0  0  0            999 V2000
    1.9846   -0.1375    0.0000 C   0  0  0  0  0  0  0  0  0  0  0  0
    1.2702    0.2750    0.0000 C   0  0  0  0  0  0  0  0  0  0  0  0
    1.2702    1.1000    0.0000 C   0  0  0  0  0  0  0  0  0  0  0  0
    0.5557    1.5125    0.0000 C   0  0  0  0  0  0  0  0  0  0  0  0
    0.5557    2.3375    0.0000 O   0  0  0  0  0  0  0  0  0  0  0  0
   -0.1588    1.1000    0.0000 C   0  0  0  0  0  0  0  0  0  0  0  0
   -0.1588    0.2750    0.0000 C   0  0  0  0  0  0  0  0  0  0  0  0
    0.5557   -0.1375    0.0000 C   0  0  0  0  0  0  0  0  0  0  0  0
    0.5557   -0.9625    0.0000 N   0  0  0  0  0  0  0  0  0  0  0  0
  1  2  1  0  0  0  0
  3  2  2  0  0  0  0
  4  3  1  0  0  0  0
  4  5  1  0  0  0  0
  6  4  2  0  0  0  0
  7  6  1  0  0  0  0
  8  7  2  0  0  0  0
  2  8  1  0  0  0  0
  8  9  1  0  0  0  0
M  END
> <RowID>
1135

> <Original_SMILES>
CC1=CC(O)=CC=C1N

> <Canonical_QSARr>
CC1=CC(O)=CC=C1N

> <InChI_Code_QSARr>
InChI=1S/C7H9NO/c1-5-4-6(9)2-3-7(5)8/h2-4,9H,8H2,1H3

> <InChI Key_QSARr>
QGNGOGOOPUYKMC-UHFFFAOYSA-N

> <Salt_Solvent>


> <Salt_Solvent_ID>
0

> <Number of connected components>
1

$$$$
Molecule_1136
  Mrv2316 01072400032D          

 23 24  0  0  0  0            999 V2000
    3.8182   -2.2621    0.0000 C   0  0  0  0  0  0  0  0  0  0  0  0
    3.8182   -1.4371    0.0000 O   0  0  0  0  0  0  0  0  0  0  0  0
    3.1038   -1.0246    0.0000 C   0  0  0  0  0  0  0  0  0  0  0  0
    3.1038   -0.1996    0.0000 C   0  0  0  0  0  0  0  0  0  0  0  0
    3.8182    0.2129    0.0000 C   0  0  0  0  0  0  0  0  0  0  0  0
    3.8182    1.0379    0.0000 C   0  0  0  0  0  0  0  0  0  0  0  0
    4.5327    1.4504    0.0000 C   0  0  0  0  0  0  0  0  0  0  0  0
    5.2472    1.0379    0.0000 C   0  0  0  0  0  0  0  0  0  0  0  0
    4.5327    2.2754    0.0000 C   0  0  0  0  0  0  0  0  0  0  0  0
    5.2472    2.6879    0.0000 C   0  0  0  0  0  0  0  0  0  0  0  0
    5.2472    3.5129    0.0000 C   0  0  0  0  0  0  0  0  0  0  0  0
    5.9617    3.9254    0.0000 O   0  0  0  0  0  0  0  0  0  0  0  0
    4.5327    3.9254    0.0000 O   0  0  0  0  0  0  0  0  0  0  0  0
    2.3893    0.2129    0.0000 C   0  0  0  0  0  0  0  0  0  0  0  0
    2.3893    1.0379    0.0000 O   0  0  0  0  0  0  0  0  0  0  0  0
    1.6748   -0.1996    0.0000 C   0  0  0  0  0  0  0  0  0  0  0  0
    1.6748   -1.0246    0.0000 C   0  0  0  0  0  0  0  0  0  0  0  0
    0.8902   -1.2795    0.0000 C   0  0  0  0  0  0  0  0  0  0  0  0
    0.4053   -0.6121    0.0000 O   0  0  0  0  0  0  0  0  0  0  0  0
    0.8902    0.0554    0.0000 C   0  0  0  0  0  0  0  0  0  0  0  0
    0.6353    0.8400    0.0000 O   0  0  0  0  0  0  0  0  0  0  0  0
    2.3893   -1.4371    0.0000 C   0  0  0  0  0  0  0  0  0  0  0  0
    2.3893   -2.2621    0.0000 C   0  0  0  0  0  0  0  0  0  0  0  0
  1  2  1  0  0  0  0
  2  3  1  0  0  0  0
  4  3  1  0  0  0  0
  4  5  1  0  0  0  0
  6  5  1  4  0  0  0
  6  7  2  0  0  0  0
  7  8  1  0  0  0  0
  7  9  1  0  0  0  0
  9 10  1  0  0  0  0
 10 11  1  0  0  0  0
 11 12  1  0  0  0  0
 11 13  2  0  0  0  0
 14  4  2  0  0  0  0
 14 15  1  0  0  0  0
 16 14  1  0  0  0  0
 16 17  2  0  0  0  0
 17 18  1  0  0  0  0
 18 19  1  0  0  0  0
 19 20  1  0  0  0  0
 20 16  1  0  0  0  0
 20 21  2  0  0  0  0
 22 17  1  0  0  0  0
  3 22  2  0  0  0  0
 22 23  1  0  0  0  0
M  END
> <RowID>
1136

> <Original_SMILES>
COC1C(CC=C(C)CCC(O)=O)=C(O)C2=C(COC2=O)C=1C

> <Canonical_QSARr>
COC1C(CC=C(C)CCC(O)=O)=C(O)C2=C(COC2=O)C=1C

> <InChI_Code_QSARr>
InChI=1S/C17H20O6/c1-9(5-7-13(18)19)4-6-11-15(20)14-12(8-23-17(14)21)10(2)16(11)22-3/h4,20H,5-8H2,1-3H3,(H,18,19)

> <InChI Key_QSARr>
HPNSFSBZBAHARI-UHFFFAOYSA-N

> <Salt_Solvent>


> <Salt_Solvent_ID>
0

> <Number of connected components>
1

$$$$
Molecule_1137
  Mrv2316 01072400032D          

 14 13  0  0  0  0            999 V2000
    5.4730    3.9849    0.0000 N   0  0  0  0  0  0  0  0  0  0  0  0
    6.1875    3.5724    0.0000 C   0  0  0  0  0  0  0  0  0  0  0  0
    6.9020    3.9849    0.0000 C   0  0  0  0  0  0  0  0  0  0  0  0
    7.6164    3.5724    0.0000 C   0  0  0  0  0  0  0  0  0  0  0  0
    8.3309    3.9849    0.0000 C   0  0  0  0  0  0  0  0  0  0  0  0
    9.0454    3.5724    0.0000 C   0  0  0  0  0  0  0  0  0  0  0  0
    9.7599    3.9849    0.0000 C   0  0  0  0  0  0  0  0  0  0  0  0
   10.4743    3.5724    0.0000 C   0  0  0  0  0  0  0  0  0  0  0  0
   11.1888    3.9849    0.0000 C   0  0  0  0  0  0  0  0  0  0  0  0
   11.9033    3.5724    0.0000 C   0  0  0  0  0  0  0  0  0  0  0  0
   12.6177    3.9849    0.0000 C   0  0  0  0  0  0  0  0  0  0  0  0
   13.3322    3.5724    0.0000 C   0  0  0  0  0  0  0  0  0  0  0  0
   14.0467    3.9849    0.0000 O   0  0  0  0  0  0  0  0  0  0  0  0
   13.3322    2.7474    0.0000 O   0  0  0  0  0  0  0  0  0  0  0  0
  1  2  1  0  0  0  0
  2  3  1  0  0  0  0
  3  4  1  0  0  0  0
  4  5  1  0  0  0  0
  5  6  1  0  0  0  0
  6  7  1  0  0  0  0
  7  8  1  0  0  0  0
  8  9  1  0  0  0  0
  9 10  1  0  0  0  0
 10 11  1  0  0  0  0
 11 12  1  0  0  0  0
 12 13  1  0  0  0  0
 12 14  2  0  0  0  0
M  END
> <RowID>
1137

> <Original_SMILES>
NCCCCCCCCCCC(O)=O

> <Canonical_QSARr>
NCCCCCCCCCCC(O)=O

> <InChI_Code_QSARr>
InChI=1S/C11H23NO2/c12-10-8-6-4-2-1-3-5-7-9-11(13)14/h1-10,12H2,(H,13,14)

> <InChI Key_QSARr>
GUOSQNAUYHMCRU-UHFFFAOYSA-N

> <Salt_Solvent>


> <Salt_Solvent_ID>
0

> <Number of connected components>
1

$$$$
Molecule_1138
  Mrv2316 01072400032D          

  6  5  0  0  0  0            999 V2000
    2.4750   -1.4289    0.0000 C   0  0  0  0  0  0  0  0  0  0  0  0
    2.0625   -0.7145    0.0000 N   0  0  0  0  0  0  0  0  0  0  0  0
    1.2375   -0.7145    0.0000 C   0  0  0  0  0  0  0  0  0  0  0  0
    0.8250   -1.4289    0.0000 O   0  0  0  0  0  0  0  0  0  0  0  0
    0.8250    0.0000    0.0000 N   0  0  0  0  0  0  0  0  0  0  0  0
    0.0000    0.0000    0.0000 C   0  0  0  0  0  0  0  0  0  0  0  0
  1  2  1  0  0  0  0
  2  3  1  0  0  0  0
  3  4  2  0  0  0  0
  3  5  1  0  0  0  0
  5  6  1  0  0  0  0
M  END
> <RowID>
1138

> <Original_SMILES>
CNC(=O)NC

> <Canonical_QSARr>
CNC(=O)NC

> <InChI_Code_QSARr>
InChI=1S/C3H8N2O/c1-4-3(6)5-2/h1-2H3,(H2,4,5,6)

> <InChI Key_QSARr>
MGJKQDOBUOMPEZ-UHFFFAOYSA-N

> <Salt_Solvent>


> <Salt_Solvent_ID>
0

> <Number of connected components>
1

$$$$
Molecule_1139
  Mrv2316 01072400032D          

  9  9  0  0  0  0            999 V2000
    1.4289    0.8250    0.0000 N   0  0  0  0  0  0  0  0  0  0  0  0
    0.7145    1.2375    0.0000 C   0  0  0  0  0  0  0  0  0  0  0  0
    0.7145    2.0625    0.0000 O   0  0  0  0  0  0  0  0  0  0  0  0
   -0.0000    0.8250    0.0000 N   0  0  0  0  0  0  0  0  0  0  0  0
   -0.0000    0.0000    0.0000 C   0  0  0  0  0  0  0  0  0  0  0  0
   -0.7145   -0.4125    0.0000 O   0  0  0  0  0  0  0  0  0  0  0  0
    0.7145   -0.4125    0.0000 N   0  0  0  0  0  0  0  0  0  0  0  0
    1.4289   -0.0000    0.0000 C   0  0  0  0  0  0  0  0  0  0  0  0
    2.1434   -0.4125    0.0000 O   0  0  0  0  0  0  0  0  0  0  0  0
  2  1  1  0  0  0  0
  2  3  2  0  0  0  0
  4  2  1  0  0  0  0
  5  4  1  0  0  0  0
  5  6  2  0  0  0  0
  7  5  1  0  0  0  0
  8  7  1  0  0  0  0
  1  8  1  0  0  0  0
  8  9  2  0  0  0  0
M  END
> <RowID>
1139

> <Original_SMILES>
[Na+].O=C1NC(=O)[N-]C(=O)N1

> <Canonical_QSARr>
O=C1NC(=O)NC(=O)N1

> <InChI_Code_QSARr>
InChI=1S/C3H3N3O3/c7-1-4-2(8)6-3(9)5-1/h(H3,4,5,6,7,8,9)

> <InChI Key_QSARr>
ZFSLODLOARCGLH-UHFFFAOYSA-N

> <Salt_Solvent>
[Na+]

> <Salt_Solvent_ID>
110

> <Number of connected components>
2

$$$$
Molecule_1140
  Mrv2316 01072400032D          

  7  6  0  0  0  0            999 V2000
   -0.1914    0.7145    0.0000 C   0  0  0  0  0  0  0  0  0  0  0  0
    0.5230    1.1270    0.0000 N   0  0  0  0  0  0  0  0  0  0  0  0
    1.2375    0.7145    0.0000 C   0  0  0  0  0  0  0  0  0  0  0  0
    1.9520    1.1270    0.0000 C   0  0  0  0  0  0  0  0  0  0  0  0
    2.6664    0.7145    0.0000 C   0  0  0  0  0  0  0  0  0  0  0  0
    3.3809    1.1270    0.0000 O   0  0  0  0  0  0  0  0  0  0  0  0
    0.5230    1.9520    0.0000 C   0  0  0  0  0  0  0  0  0  0  0  0
  1  2  1  0  0  0  0
  2  3  1  0  0  0  0
  3  4  1  0  0  0  0
  4  5  1  0  0  0  0
  5  6  1  0  0  0  0
  2  7  1  0  0  0  0
M  END
> <RowID>
1140

> <Original_SMILES>
Cl.CN(C)CCCO

> <Canonical_QSARr>
CN(C)CCCO

> <InChI_Code_QSARr>
InChI=1S/C5H13NO/c1-6(2)4-3-5-7/h7H,3-5H2,1-2H3

> <InChI Key_QSARr>
PYSGFFTXMUWEOT-UHFFFAOYSA-N

> <Salt_Solvent>
Cl

> <Salt_Solvent_ID>
170

> <Number of connected components>
2

$$$$
Molecule_1141
  Mrv2316 01072400032D          

 11 10  0  0  0  0            999 V2000
    2.2836    2.1434    0.0000 C   0  0  0  0  0  0  0  0  0  0  0  0
    2.9980    2.5559    0.0000 C   0  0  0  0  0  0  0  0  0  0  0  0
    3.7125    2.1434    0.0000 C   0  0  0  0  0  0  0  0  0  0  0  0
    4.4270    2.5559    0.0000 C   0  0  0  0  0  0  0  0  0  0  0  0
    5.1414    2.1434    0.0000 O   0  0  0  0  0  0  0  0  0  0  0  0
    5.8559    2.5559    0.0000 C   0  0  0  0  0  0  0  0  0  0  0  0
    6.5704    2.1434    0.0000 C   0  0  0  0  0  0  0  0  0  0  0  0
    7.2849    2.5559    0.0000 O   0  0  0  0  0  0  0  0  0  0  0  0
    7.9993    2.1434    0.0000 C   0  0  0  0  0  0  0  0  0  0  0  0
    8.7138    2.5559    0.0000 C   0  0  0  0  0  0  0  0  0  0  0  0
    7.9993    1.3184    0.0000 O   0  0  0  0  0  0  0  0  0  0  0  0
  1  2  1  0  0  0  0
  2  3  1  0  0  0  0
  3  4  1  0  0  0  0
  4  5  1  0  0  0  0
  5  6  1  0  0  0  0
  6  7  1  0  0  0  0
  7  8  1  0  0  0  0
  8  9  1  0  0  0  0
  9 10  1  0  0  0  0
  9 11  2  0  0  0  0
M  END
> <RowID>
1141

> <Original_SMILES>
CCCCOCCOC(C)=O

> <Canonical_QSARr>
CCCCOCCOC(C)=O

> <InChI_Code_QSARr>
InChI=1S/C8H16O3/c1-3-4-5-10-6-7-11-8(2)9/h3-7H2,1-2H3

> <InChI Key_QSARr>
NQBXSWAWVZHKBZ-UHFFFAOYSA-N

> <Salt_Solvent>


> <Salt_Solvent_ID>
0

> <Number of connected components>
1

$$$$
Molecule_1142
  Mrv2316 01072400032D          

  1  0  0  0  0  0            999 V2000
    0.0000    0.0000    0.0000 C   0  0  0  0  0  0  0  0  0  0  0  0
M  END
> <RowID>
1142

> <Original_SMILES>
C

> <Canonical_QSARr>
C

> <InChI_Code_QSARr>
InChI=1S/CH4/h1H4

> <InChI Key_QSARr>
VNWKTOKETHGBQD-UHFFFAOYSA-N

> <Salt_Solvent>


> <Salt_Solvent_ID>
0

> <Number of connected components>
1

$$$$
Molecule_1143
  Mrv2316 01072400032D          

 20 21  0  0  0  0            999 V2000
   -4.2868   -5.6100    0.0000 C   0  0  0  0  0  0  0  0  0  0  0  0
   -3.5724   -5.1975    0.0000 C   0  0  0  0  0  0  0  0  0  0  0  0
   -3.5724   -4.3725    0.0000 C   0  0  0  0  0  0  0  0  0  0  0  0
   -2.8579   -5.6100    0.0000 C   0  0  0  0  0  0  0  0  0  0  0  0
   -2.1434   -5.1975    0.0000 C   0  0  0  0  0  0  0  0  0  0  0  0
   -2.1434   -4.3725    0.0000 C   0  0  0  0  0  0  0  0  0  0  0  0
   -1.4289   -5.6100    0.0000 N   0  0  0  0  0  0  0  0  0  0  0  0
   -0.7145   -5.1975    0.0000 C   0  0  0  0  0  0  0  0  0  0  0  0
    0.0000   -5.6100    0.0000 C   0  0  0  0  0  0  0  0  0  0  0  0
    0.7145   -5.1975    0.0000 C   0  0  0  0  0  0  0  0  0  0  0  0
    0.7145   -4.3725    0.0000 C   0  0  0  0  0  0  0  0  0  0  0  0
    1.4289   -3.9600    0.0000 N   0  0  0  0  0  0  0  0  0  0  0  0
    2.1434   -4.3725    0.0000 C   0  0  0  0  0  0  0  0  0  0  0  0
    2.1434   -5.1975    0.0000 C   0  0  0  0  0  0  0  0  0  0  0  0
    2.8579   -5.6100    0.0000 C   0  0  0  0  0  0  0  0  0  0  0  0
    3.5724   -5.1975    0.0000 C   0  0  0  0  0  0  0  0  0  0  0  0
    3.5724   -4.3725    0.0000 C   0  0  0  0  0  0  0  0  0  0  0  0
    2.8579   -3.9600    0.0000 C   0  0  0  0  0  0  0  0  0  0  0  0
    0.0000   -3.9600    0.0000 C   0  0  0  0  0  0  0  0  0  0  0  0
   -0.7145   -4.3725    0.0000 C   0  0  0  0  0  0  0  0  0  0  0  0
  1  2  1  0  0  0  0
  2  3  1  0  0  0  0
  2  4  1  0  0  0  0
  4  5  1  0  0  0  0
  5  6  1  0  0  0  0
  5  7  1  0  0  0  0
  7  8  1  0  0  0  0
  9  8  1  0  0  0  0
 10  9  2  0  0  0  0
 11 10  1  0  0  0  0
 11 12  1  0  0  0  0
 12 13  1  0  0  0  0
 14 13  1  0  0  0  0
 15 14  2  0  0  0  0
 16 15  1  0  0  0  0
 17 16  2  0  0  0  0
 18 17  1  0  0  0  0
 13 18  2  0  0  0  0
 19 11  2  0  0  0  0
 20 19  1  0  0  0  0
  8 20  2  0  0  0  0
M  END
> <RowID>
1143

> <Original_SMILES>
CC(C)CC(C)NC1C=CC(=CC=1)NC1C=CC=CC=1

> <Canonical_QSARr>
CC(C)CC(C)NC1C=CC(=CC=1)NC1C=CC=CC=1

> <InChI_Code_QSARr>
InChI=1S/C18H24N2/c1-14(2)13-15(3)19-17-9-11-18(12-10-17)20-16-7-5-4-6-8-16/h4-12,14-15,19-20H,13H2,1-3H3

> <InChI Key_QSARr>
ZZMVLMVFYMGSMY-UHFFFAOYSA-N

> <Salt_Solvent>


> <Salt_Solvent_ID>
0

> <Number of connected components>
1

$$$$
Molecule_1144
  Mrv2316 01072400032D          

 11 11  0  0  0  0            999 V2000
    1.1042    1.3875    0.0000 N   0  0  0  0  0  0  0  0  0  0  0  0
    0.3897    1.8000    0.0000 C   0  0  0  0  0  0  0  0  0  0  0  0
    0.3897    2.6250    0.0000 O   0  0  0  0  0  0  0  0  0  0  0  0
   -0.3248    1.3875    0.0000 N   0  0  0  0  0  0  0  0  0  0  0  0
   -0.3248    0.5625    0.0000 C   0  0  0  0  0  0  0  0  0  0  0  0
   -1.0392    0.1500    0.0000 O   0  0  0  0  0  0  0  0  0  0  0  0
    0.3897    0.1500    0.0000 C   0  0  0  0  0  0  0  0  0  0  0  0
    0.3897   -0.6750    0.0000 N   0  3  0  0  0  0  0  0  0  0  0  0
    0.3897   -1.5000    0.0000 N   0  0  0  0  0  0  0  0  0  0  0  0
    1.1042    0.5625    0.0000 C   0  0  0  0  0  0  0  0  0  0  0  0
    1.8187    0.1500    0.0000 O   0  5  0  0  0  0  0  0  0  0  0  0
  2  1  1  0  0  0  0
  2  3  2  0  0  0  0
  4  2  1  0  0  0  0
  5  4  1  0  0  0  0
  5  6  2  0  0  0  0
  7  5  1  0  0  0  0
  7  8  1  0  0  0  0
  8  9  3  0  0  0  0
 10  7  1  0  0  0  0
  1 10  2  0  0  0  0
 10 11  1  0  0  0  0
M  CHG  2   8   1  11  -1
M  END
> <RowID>
1144

> <Original_SMILES>
N#[N+]C1=C([O-])NC(=O)NC1=O

> <Canonical_QSARr>
N#[N+]C1C([O-])=NC(=O)NC1=O

> <InChI_Code_QSARr>
InChI=1S/C4H2N4O3/c5-8-1-2(9)6-4(11)7-3(1)10/h1H,(H-,6,7,9,10,11)

> <InChI Key_QSARr>
XLUDVJOUKQJKOQ-UHFFFAOYSA-N

> <Salt_Solvent>


> <Salt_Solvent_ID>
0

> <Number of connected components>
1

$$$$
Molecule_1145
  Mrv2316 01072400032D          

 15 16  0  0  0  0            999 V2000
    0.7145    0.4125    0.0000 N   0  0  0  0  0  0  0  0  0  0  0  0
    0.0000   -0.0000    0.0000 C   0  0  0  0  0  0  0  0  0  0  0  0
   -0.7145   -0.4125    0.0000 C   0  0  0  0  0  0  0  0  0  0  0  0
   -0.7145   -1.2375    0.0000 C   0  0  0  0  0  0  0  0  0  0  0  0
   -1.4289   -1.6500    0.0000 C   0  0  0  0  0  0  0  0  0  0  0  0
   -1.4289   -2.4750    0.0000 C   0  0  0  0  0  0  0  0  0  0  0  0
   -0.7145   -2.8875    0.0000 C   0  0  0  0  0  0  0  0  0  0  0  0
    0.0000   -2.4750    0.0000 C   0  0  0  0  0  0  0  0  0  0  0  0
    0.0000   -1.6500    0.0000 C   0  0  0  0  0  0  0  0  0  0  0  0
   -1.4289   -0.0000    0.0000 C   0  0  0  0  0  0  0  0  0  0  0  0
   -1.4289    0.8250    0.0000 C   0  0  0  0  0  0  0  0  0  0  0  0
   -2.1434    1.2375    0.0000 C   0  0  0  0  0  0  0  0  0  0  0  0
   -2.8579    0.8250    0.0000 C   0  0  0  0  0  0  0  0  0  0  0  0
   -2.8579   -0.0000    0.0000 C   0  0  0  0  0  0  0  0  0  0  0  0
   -2.1434   -0.4125    0.0000 C   0  0  0  0  0  0  0  0  0  0  0  0
  1  2  3  0  0  0  0
  2  3  1  0  0  0  0
  3  4  1  0  0  0  0
  5  4  1  0  0  0  0
  6  5  2  0  0  0  0
  7  6  1  0  0  0  0
  8  7  2  0  0  0  0
  9  8  1  0  0  0  0
  4  9  2  0  0  0  0
  3 10  1  0  0  0  0
 11 10  1  0  0  0  0
 12 11  2  0  0  0  0
 13 12  1  0  0  0  0
 14 13  2  0  0  0  0
 15 14  1  0  0  0  0
 10 15  2  0  0  0  0
M  END
> <RowID>
1145

> <Original_SMILES>
N#CC(C1C=CC=CC=1)C1C=CC=CC=1

> <Canonical_QSARr>
N#CC(C1C=CC=CC=1)C1C=CC=CC=1

> <InChI_Code_QSARr>
InChI=1S/C14H11N/c15-11-14(12-7-3-1-4-8-12)13-9-5-2-6-10-13/h1-10,14H

> <InChI Key_QSARr>
NEBPTMCRLHKPOB-UHFFFAOYSA-N

> <Salt_Solvent>


> <Salt_Solvent_ID>
0

> <Number of connected components>
1

$$$$
Molecule_1147
  Mrv2316 01072400032D          

 22 25  0  0  0  0            999 V2000
   -0.9252   -1.1425    0.0000 O   0  0  0  0  0  0  0  0  0  0  0  0
   -0.7537   -0.3356    0.0000 C   0  0  0  0  0  0  0  0  0  0  0  0
   -1.3057    0.2775    0.0000 C   0  0  0  0  0  0  0  0  0  0  0  0
   -2.1307    0.2775    0.0000 C   0  0  0  0  0  0  0  0  0  0  0  0
   -2.5432    0.9920    0.0000 C   0  0  0  0  0  0  0  0  0  0  0  0
   -2.1307    1.7065    0.0000 C   0  0  0  0  0  0  0  0  0  0  0  0
   -1.3057    1.7065    0.0000 C   0  0  0  0  0  0  0  0  0  0  0  0
   -0.8932    0.9920    0.0000 C   0  0  0  0  0  0  0  0  0  0  0  0
   -0.0862    0.8205    0.0000 C   0  0  0  0  0  0  0  0  0  0  0  0
    0.5269    1.3725    0.0000 O   0  0  0  0  0  0  0  0  0  0  0  0
    0.0000   -0.0000    0.0000 C   0  0  0  0  0  0  0  0  0  0  0  0
    0.7145   -0.4125    0.0000 C   0  0  0  0  0  0  0  0  0  0  0  0
    1.4289   -0.0000    0.0000 N   0  0  0  0  0  0  0  0  0  0  0  0
    2.1434   -0.4125    0.0000 C   0  0  0  0  0  0  0  0  0  0  0  0
    2.8579   -0.0000    0.0000 C   0  0  0  0  0  0  0  0  0  0  0  0
    3.5724   -0.4125    0.0000 C   0  0  0  0  0  0  0  0  0  0  0  0
    3.5724   -1.2375    0.0000 C   0  0  0  0  0  0  0  0  0  0  0  0
    2.8579   -1.6500    0.0000 C   0  0  0  0  0  0  0  0  0  0  0  0
    2.1434   -1.2375    0.0000 C   0  0  0  0  0  0  0  0  0  0  0  0
    1.4289   -1.6500    0.0000 C   0  0  0  0  0  0  0  0  0  0  0  0
    0.7145   -1.2375    0.0000 C   0  0  0  0  0  0  0  0  0  0  0  0
    0.0000   -1.6500    0.0000 O   0  0  0  0  0  0  0  0  0  0  0  0
  1  2  2  0  0  0  0
  3  2  1  0  0  0  0
  3  4  1  0  0  0  0
  4  5  2  0  0  0  0
  5  6  1  0  0  0  0
  6  7  2  0  0  0  0
  7  8  1  0  0  0  0
  8  3  2  0  0  0  0
  9  8  1  0  0  0  0
  9 10  2  0  0  0  0
 11  9  1  0  0  0  0
  2 11  1  0  0  0  0
 11 12  1  0  0  0  0
 13 12  2  0  0  0  0
 14 13  1  0  0  0  0
 14 15  1  0  0  0  0
 15 16  2  0  0  0  0
 16 17  1  0  0  0  0
 17 18  2  0  0  0  0
 18 19  1  0  0  0  0
 19 14  2  0  0  0  0
 20 19  1  0  0  0  0
 21 20  2  0  0  0  0
 12 21  1  0  0  0  0
 21 22  1  0  0  0  0
M  END
> <RowID>
1147

> <Original_SMILES>
OC1=C(C(=O)C2=CC=CC=C12)C1N=C2C=CC=CC2=CC=1O

> <Canonical_QSARr>
OC1=CC2C=CC=CC=2N=C1C1C(=O)C2C=CC=CC=2C1=O

> <InChI_Code_QSARr>
InChI=1S/C18H11NO3/c20-14-9-10-5-1-4-8-13(10)19-16(14)15-17(21)11-6-2-3-7-12(11)18(15)22/h1-9,15,20H

> <InChI Key_QSARr>
FDTLQXNAPKJJAM-UHFFFAOYSA-N

> <Salt_Solvent>


> <Salt_Solvent_ID>
0

> <Number of connected components>
1

$$$$
Molecule_1148
  Mrv2316 01072400032D          

 21 23  0  0  0  0            999 V2000
    4.0668    1.4836    0.0000 C   0  0  0  0  0  0  0  0  0  0  0  0
    3.3523    1.8961    0.0000 C   0  0  0  0  0  0  0  0  0  0  0  0
    3.3523    2.7211    0.0000 C   0  0  0  0  0  0  0  0  0  0  0  0
    2.6378    3.1336    0.0000 C   0  0  0  0  0  0  0  0  0  0  0  0
    1.9233    2.7211    0.0000 C   0  0  0  0  0  0  0  0  0  0  0  0
    1.1387    2.9761    0.0000 N   0  0  0  0  0  0  0  0  0  0  0  0
    0.6538    2.3086    0.0000 C   0  0  0  0  0  0  0  0  0  0  0  0
    1.1387    1.6412    0.0000 S   0  0  0  0  0  0  0  0  0  0  0  0
    1.9233    1.8961    0.0000 C   0  0  0  0  0  0  0  0  0  0  0  0
    2.6378    1.4836    0.0000 C   0  0  0  0  0  0  0  0  0  0  0  0
    2.6378    0.6586    0.0000 S   0  0  0  0  0  0  0  0  0  0  0  0
    2.6378   -0.1664    0.0000 O   0  0  0  0  0  0  0  0  0  0  0  0
    3.4628    0.6586    0.0000 O   0  0  0  0  0  0  0  0  0  0  0  0
    1.8128    0.6586    0.0000 O   0  0  0  0  0  0  0  0  0  0  0  0
   -0.1712    2.3086    0.0000 C   0  0  0  0  0  0  0  0  0  0  0  0
   -0.5837    3.0231    0.0000 C   0  0  0  0  0  0  0  0  0  0  0  0
   -1.4087    3.0231    0.0000 C   0  0  0  0  0  0  0  0  0  0  0  0
   -1.8212    2.3086    0.0000 C   0  0  0  0  0  0  0  0  0  0  0  0
   -2.6462    2.3086    0.0000 N   0  0  0  0  0  0  0  0  0  0  0  0
   -1.4087    1.5942    0.0000 C   0  0  0  0  0  0  0  0  0  0  0  0
   -0.5837    1.5942    0.0000 C   0  0  0  0  0  0  0  0  0  0  0  0
  1  2  1  0  0  0  0
  3  2  1  0  0  0  0
  4  3  2  0  0  0  0
  5  4  1  0  0  0  0
  5  6  1  0  0  0  0
  6  7  2  0  0  0  0
  7  8  1  0  0  0  0
  8  9  1  0  0  0  0
  9  5  2  0  0  0  0
 10  9  1  0  0  0  0
  2 10  2  0  0  0  0
 10 11  1  0  0  0  0
 11 12  1  0  0  0  0
 11 13  2  0  0  0  0
 11 14  2  0  0  0  0
  7 15  1  0  0  0  0
 16 15  1  0  0  0  0
 17 16  2  0  0  0  0
 18 17  1  0  0  0  0
 18 19  1  0  0  0  0
 20 18  2  0  0  0  0
 21 20  1  0  0  0  0
 15 21  2  0  0  0  0
M  END
> <RowID>
1148

> <Original_SMILES>
CC1C=CC2N=C(SC=2C=1S(O)(=O)=O)C1C=CC(N)=CC=1

> <Canonical_QSARr>
CC1C=CC2N=C(SC=2C=1S(O)(=O)=O)C1C=CC(N)=CC=1

> <InChI_Code_QSARr>
InChI=1S/C14H12N2O3S2/c1-8-2-7-11-12(13(8)21(17,18)19)20-14(16-11)9-3-5-10(15)6-4-9/h2-7H,15H2,1H3,(H,17,18,19)

> <InChI Key_QSARr>
KGZUHYIHYBDNLC-UHFFFAOYSA-N

> <Salt_Solvent>


> <Salt_Solvent_ID>
0

> <Number of connected components>
1

$$$$
Molecule_1149
  Mrv2316 01072400032D          

 12 12  0  0  0  0            999 V2000
    1.2345    1.5948    0.0000 O   0  0  0  0  0  0  0  0  0  0  0  0
    0.4499    1.3399    0.0000 C   0  0  0  0  0  0  0  0  0  0  0  0
   -0.2175    1.8248    0.0000 C   0  0  0  0  0  0  0  0  0  0  0  0
   -0.2175    2.6498    0.0000 O   0  0  0  0  0  0  0  0  0  0  0  0
   -0.8850    1.3399    0.0000 C   0  0  0  0  0  0  0  0  0  0  0  0
   -1.6696    1.5948    0.0000 O   0  0  0  0  0  0  0  0  0  0  0  0
   -0.6300    0.5553    0.0000 O   0  0  0  0  0  0  0  0  0  0  0  0
    0.1950    0.5553    0.0000 C   0  0  0  0  0  0  0  0  0  0  0  0
    0.6799   -0.1122    0.0000 C   0  0  0  0  0  0  0  0  0  0  0  0
    0.3443   -0.8658    0.0000 C   0  0  0  0  0  0  0  0  0  0  0  0
    0.8293   -1.5333    0.0000 O   0  0  0  0  0  0  0  0  0  0  0  0
    1.5004   -0.0259    0.0000 O   0  0  0  0  0  0  0  0  0  0  0  0
  1  2  1  0  0  0  0
  3  2  1  0  0  0  0
  3  4  2  0  0  0  0
  5  3  1  0  0  0  0
  5  6  2  0  0  0  0
  7  5  1  0  0  0  0
  8  7  1  0  0  0  0
  2  8  1  0  0  0  0
  8  9  1  0  0  0  0
  9 10  1  0  0  0  0
 10 11  1  0  0  0  0
  9 12  1  0  0  0  0
M  END
> <RowID>
1149

> <Original_SMILES>
[Na+].[O-]C1C(OC(=O)C=1O)C(O)CO

> <Canonical_QSARr>
OCC(O)C1OC(=O)C(=O)C1O

> <InChI_Code_QSARr>
InChI=1S/C6H8O6/c7-1-2(8)5-3(9)4(10)6(11)12-5/h2-3,5,7-9H,1H2

> <InChI Key_QSARr>
KRGQEOSDQHTZMX-UHFFFAOYSA-N

> <Salt_Solvent>
[Na+]

> <Salt_Solvent_ID>
110

> <Number of connected components>
2

$$$$
Molecule_1151
  Mrv2316 01072400032D          

 14 14  0  0  0  0            999 V2000
    0.9696   -0.1473    0.0000 C   0  0  0  0  0  0  0  0  0  0  0  0
    1.6841    0.2652    0.0000 C   0  0  0  0  0  0  0  0  0  0  0  0
    2.3986   -0.1473    0.0000 C   0  0  0  0  0  0  0  0  0  0  0  0
    3.1131    0.2652    0.0000 C   0  0  0  0  0  0  0  0  0  0  0  0
    3.1131    1.0902    0.0000 C   0  0  0  0  0  0  0  0  0  0  0  0
    2.3986    1.5027    0.0000 C   0  0  0  0  0  0  0  0  0  0  0  0
    2.9289    2.1347    0.0000 C   0  0  0  0  0  0  0  0  0  0  0  0
    1.8683    2.1347    0.0000 C   0  0  0  0  0  0  0  0  0  0  0  0
    1.6841    1.0902    0.0000 C   0  0  0  0  0  0  0  0  0  0  0  0
    0.9696    1.5027    0.0000 C   0  0  0  0  0  0  0  0  0  0  0  0
    0.9696    2.3277    0.0000 O   0  0  0  0  0  0  0  0  0  0  0  0
    0.2552    1.0902    0.0000 O   0  0  0  0  0  0  0  0  0  0  0  0
   -0.4593    1.5027    0.0000 C   0  0  0  0  0  0  0  0  0  0  0  0
   -1.1738    1.0902    0.0000 C   0  0  0  0  0  0  0  0  0  0  0  0
  1  2  1  0  0  0  0
  3  2  1  0  0  0  0
  4  3  2  0  0  0  0
  5  4  1  0  0  0  0
  6  5  1  0  0  0  0
  6  7  1  0  0  0  0
  6  8  1  0  0  0  0
  9  6  1  0  0  0  0
  2  9  2  0  0  0  0
  9 10  1  0  0  0  0
 10 11  2  0  0  0  0
 10 12  1  0  0  0  0
 12 13  1  0  0  0  0
 13 14  1  0  0  0  0
M  END
> <RowID>
1151

> <Original_SMILES>
CC1C=CCC(C)(C)C=1C(=O)OCC

> <Canonical_QSARr>
CC1C=CCC(C)(C)C=1C(=O)OCC

> <InChI_Code_QSARr>
InChI=1S/C12H18O2/c1-5-14-11(13)10-9(2)7-6-8-12(10,3)4/h6-7H,5,8H2,1-4H3

> <InChI Key_QSARr>
KYEZYLFPHRVFBF-UHFFFAOYSA-N

> <Salt_Solvent>


> <Salt_Solvent_ID>
0

> <Number of connected components>
1

$$$$
Molecule_1152
  Mrv2316 01072400032D          

 20 20  0  0  0  0            999 V2000
   -0.5001    4.0837    0.0000 C   0  0  0  0  0  0  0  0  0  0  0  0
   -0.5001    3.2587    0.0000 C   0  0  0  0  0  0  0  0  0  0  0  0
   -1.2146    2.8463    0.0000 C   0  0  0  0  0  0  0  0  0  0  0  0
    0.2143    2.8463    0.0000 C   0  0  0  0  0  0  0  0  0  0  0  0
    0.2143    2.0212    0.0000 O   0  0  0  0  0  0  0  0  0  0  0  0
    0.9288    1.6088    0.0000 C   0  0  0  0  0  0  0  0  0  0  0  0
    1.6433    2.0213    0.0000 O   0  0  0  0  0  0  0  0  0  0  0  0
    0.9288    0.7838    0.0000 C   0  0  0  0  0  0  0  0  0  0  0  0
    0.2143    0.3712    0.0000 C   0  0  0  0  0  0  0  0  0  0  0  0
    0.2143   -0.4538    0.0000 C   0  0  0  0  0  0  0  0  0  0  0  0
    0.9288   -0.8662    0.0000 C   0  0  0  0  0  0  0  0  0  0  0  0
    1.6433   -0.4537    0.0000 C   0  0  0  0  0  0  0  0  0  0  0  0
    1.6433    0.3713    0.0000 C   0  0  0  0  0  0  0  0  0  0  0  0
    2.3578    0.7838    0.0000 C   0  0  0  0  0  0  0  0  0  0  0  0
    2.3578    1.6088    0.0000 O   0  0  0  0  0  0  0  0  0  0  0  0
    3.0722    0.3713    0.0000 O   0  0  0  0  0  0  0  0  0  0  0  0
    3.7867    0.7838    0.0000 C   0  0  0  0  0  0  0  0  0  0  0  0
    4.5012    0.3713    0.0000 C   0  0  0  0  0  0  0  0  0  0  0  0
    5.2156    0.7838    0.0000 C   0  0  0  0  0  0  0  0  0  0  0  0
    4.5012   -0.4537    0.0000 C   0  0  0  0  0  0  0  0  0  0  0  0
  1  2  1  0  0  0  0
  2  3  1  0  0  0  0
  2  4  1  0  0  0  0
  4  5  1  0  0  0  0
  5  6  1  0  0  0  0
  6  7  2  0  0  0  0
  6  8  1  0  0  0  0
  9  8  1  0  0  0  0
 10  9  2  0  0  0  0
 11 10  1  0  0  0  0
 12 11  2  0  0  0  0
 13 12  1  0  0  0  0
  8 13  2  0  0  0  0
 13 14  1  0  0  0  0
 14 15  2  0  0  0  0
 14 16  1  0  0  0  0
 16 17  1  0  0  0  0
 17 18  1  0  0  0  0
 18 19  1  0  0  0  0
 18 20  1  0  0  0  0
M  END
> <RowID>
1152

> <Original_SMILES>
CC(C)COC(=O)C1C=CC=CC=1C(=O)OCC(C)C

> <Canonical_QSARr>
CC(C)COC(=O)C1C=CC=CC=1C(=O)OCC(C)C

> <InChI_Code_QSARr>
InChI=1S/C16H22O4/c1-11(2)9-19-15(17)13-7-5-6-8-14(13)16(18)20-10-12(3)4/h5-8,11-12H,9-10H2,1-4H3

> <InChI Key_QSARr>
MGWAVDBGNNKXQV-UHFFFAOYSA-N

> <Salt_Solvent>


> <Salt_Solvent_ID>
0

> <Number of connected components>
1

$$$$
Molecule_1153
  Mrv2316 01072400032D          

 21 20  0  0  0  0            999 V2000
   10.4230    6.8427    0.0000 C   0  0  0  0  0  0  0  0  0  0  0  0
   11.1375    6.4302    0.0000 C   0  0  0  0  0  0  0  0  0  0  0  0
   11.8520    6.8427    0.0000 C   0  0  0  0  0  0  0  0  0  0  0  0
   12.5664    6.4302    0.0000 C   0  0  0  0  0  0  0  0  0  0  0  0
   13.2809    6.8427    0.0000 C   0  0  0  0  0  0  0  0  0  0  0  0
   13.9954    6.4302    0.0000 C   0  0  0  0  0  0  0  0  0  0  0  0
   14.7098    6.8427    0.0000 C   0  0  0  0  0  0  0  0  0  0  0  0
   15.4243    6.4302    0.0000 C   0  0  0  0  0  0  0  0  0  0  0  0
   16.1388    6.8427    0.0000 C   0  0  0  0  0  0  0  0  0  0  0  0
   16.8533    6.4302    0.0000 C   0  0  0  0  0  0  0  0  0  0  0  0
   17.5677    6.8427    0.0000 C   0  0  0  0  0  0  0  0  0  0  0  0
   18.2822    6.4302    0.0000 C   0  0  0  0  0  0  0  0  0  0  0  0
   18.9967    6.8427    0.0000 C   0  0  0  0  0  0  0  0  0  0  0  0
   19.7111    6.4302    0.0000 C   0  0  0  0  0  0  0  0  0  0  0  0
   20.4256    6.8427    0.0000 C   0  0  0  0  0  0  0  0  0  0  0  0
   21.1401    6.4302    0.0000 C   0  0  0  0  0  0  0  0  0  0  0  0
   21.8545    6.8427    0.0000 C   0  0  0  0  0  0  0  0  0  0  0  0
   22.5690    6.4302    0.0000 C   0  0  0  0  0  0  0  0  0  0  0  0
   23.2835    6.8427    0.0000 O   0  0  0  0  0  0  0  0  0  0  0  0
   23.9980    6.4302    0.0000 C   0  0  0  0  0  0  0  0  0  0  0  0
   24.7124    6.8427    0.0000 C   0  0  0  0  0  0  0  0  0  0  0  0
  1  2  1  0  0  0  0
  2  3  1  0  0  0  0
  3  4  1  0  0  0  0
  4  5  1  0  0  0  0
  5  6  1  0  0  0  0
  6  7  1  0  0  0  0
  7  8  1  0  0  0  0
  8  9  1  0  0  0  0
  9 10  1  0  0  0  0
 10 11  1  0  0  0  0
 11 12  1  0  0  0  0
 12 13  1  0  0  0  0
 13 14  1  0  0  0  0
 14 15  1  0  0  0  0
 15 16  1  0  0  0  0
 16 17  1  0  0  0  0
 17 18  1  0  0  0  0
 18 19  1  0  0  0  0
 19 20  1  0  0  0  0
 20 21  2  0  0  0  0
M  END
> <RowID>
1153

> <Original_SMILES>
CCCCCCCCCCCCCCCCCCOC=C

> <Canonical_QSARr>
CCCCCCCCCCCCCCCCCCOC=C

> <InChI_Code_QSARr>
InChI=1S/C20H40O/c1-3-5-6-7-8-9-10-11-12-13-14-15-16-17-18-19-20-21-4-2/h4H,2-3,5-20H2,1H3

> <InChI Key_QSARr>
QJJDJWUCRAPCOL-UHFFFAOYSA-N

> <Salt_Solvent>


> <Salt_Solvent_ID>
0

> <Number of connected components>
1

$$$$
Molecule_1154
  Mrv2316 01072400032D          

  4  3  0  0  0  0            999 V2000
    2.0625   -0.7145    0.0000 C   0  0  0  0  0  0  0  0  0  0  0  0
    1.2375   -0.7145    0.0000 C   0  0  0  0  0  0  0  0  0  0  0  0
    0.8250   -0.0000    0.0000 C   0  0  0  0  0  0  0  0  0  0  0  0
    0.0000   -0.0000    0.0000 Cl  0  0  0  0  0  0  0  0  0  0  0  0
  1  2  2  0  0  0  0
  2  3  1  0  0  0  0
  3  4  1  0  0  0  0
M  END
> <RowID>
1154

> <Original_SMILES>
C=CCCl

> <Canonical_QSARr>
C=CCCl

> <InChI_Code_QSARr>
InChI=1S/C3H5Cl/c1-2-3-4/h2H,1,3H2

> <InChI Key_QSARr>
OSDWBNJEKMUWAV-UHFFFAOYSA-N

> <Salt_Solvent>


> <Salt_Solvent_ID>
0

> <Number of connected components>
1

$$$$
Molecule_1155
  Mrv2316 01072400032D          

 14 14  0  0  0  0            999 V2000
   -0.7439    1.0577    0.0000 C   0  0  0  0  0  0  0  0  0  0  0  0
    0.0766    0.9714    0.0000 C   0  0  0  0  0  0  0  0  0  0  0  0
    0.0766    1.7964    0.0000 C   0  0  0  0  0  0  0  0  0  0  0  0
   -0.0950    0.1644    0.0000 C   0  0  0  0  0  0  0  0  0  0  0  0
    0.6195   -0.2481    0.0000 C   0  0  0  0  0  0  0  0  0  0  0  0
    1.2326    0.3040    0.0000 C   0  0  0  0  0  0  0  0  0  0  0  0
    1.7175   -0.3635    0.0000 C   0  0  0  0  0  0  0  0  0  0  0  0
    1.9471    0.7165    0.0000 C   0  0  0  0  0  0  0  0  0  0  0  0
    2.6616    0.3040    0.0000 C   0  0  0  0  0  0  0  0  0  0  0  0
    3.3760    0.7165    0.0000 C   0  0  0  0  0  0  0  0  0  0  0  0
    4.0905    0.3040    0.0000 C   0  0  0  0  0  0  0  0  0  0  0  0
    4.8050    0.7165    0.0000 C   0  0  0  0  0  0  0  0  0  0  0  0
    0.8971    1.0577    0.0000 C   0  0  0  0  0  0  0  0  0  0  0  0
    1.3096    1.7721    0.0000 O   0  0  0  0  0  0  0  0  0  0  0  0
  1  2  1  0  0  0  0
  2  3  1  0  0  0  0
  4  2  1  0  0  0  0
  5  4  1  0  0  0  0
  6  5  1  0  0  0  0
  6  7  1  0  0  0  0
  6  8  1  0  0  0  0
  8  9  1  0  0  0  0
  9 10  1  0  0  0  0
 10 11  1  0  0  0  0
 11 12  1  0  0  0  0
 13  6  1  0  0  0  0
  2 13  1  0  0  0  0
 13 14  2  0  0  0  0
M  END
> <RowID>
1155

> <Original_SMILES>
CC1(C)CCC(C)(CCCCC)C1=O

> <Canonical_QSARr>
CC1(C)CCC(C)(CCCCC)C1=O

> <InChI_Code_QSARr>
InChI=1S/C13H24O/c1-5-6-7-8-13(4)10-9-12(2,3)11(13)14/h5-10H2,1-4H3

> <InChI Key_QSARr>
PUKWIVZFEZFVAT-UHFFFAOYSA-N

> <Salt_Solvent>


> <Salt_Solvent_ID>
0

> <Number of connected components>
1

$$$$
Molecule_1156
  Mrv2316 01072400032D          

 42 43  0  0  0  0            999 V2000
    3.5723  -12.7875    0.0000 C   0  0  0  0  0  0  0  0  0  0  0  0
    3.5723  -11.9625    0.0000 C   0  0  0  0  0  0  0  0  0  0  0  0
    4.2868  -11.5500    0.0000 C   0  0  0  0  0  0  0  0  0  0  0  0
    4.2868  -10.7250    0.0000 C   0  0  0  0  0  0  0  0  0  0  0  0
    5.0013  -10.3125    0.0000 C   0  0  0  0  0  0  0  0  0  0  0  0
    5.7158  -10.7250    0.0000 C   0  0  0  0  0  0  0  0  0  0  0  0
    6.4302  -10.3125    0.0000 C   0  0  0  0  0  0  0  0  0  0  0  0
    6.4302   -9.4875    0.0000 O   0  0  0  0  0  0  0  0  0  0  0  0
    7.1447  -10.7250    0.0000 O   0  0  0  0  0  0  0  0  0  0  0  0
    7.8592  -10.3125    0.0000 C   0  0  0  0  0  0  0  0  0  0  0  0
    8.5736  -10.7250    0.0000 C   0  0  0  0  0  0  0  0  0  0  0  0
    9.2881  -10.3125    0.0000 O   0  0  0  0  0  0  0  0  0  0  0  0
   10.0026  -10.7250    0.0000 C   0  0  0  0  0  0  0  0  0  0  0  0
   10.7171  -10.3125    0.0000 C   0  0  0  0  0  0  0  0  0  0  0  0
   11.4315  -10.7250    0.0000 O   0  0  0  0  0  0  0  0  0  0  0  0
   12.1460  -10.3125    0.0000 C   0  0  0  0  0  0  0  0  0  0  0  0
   12.8605  -10.7250    0.0000 C   0  0  0  0  0  0  0  0  0  0  0  0
   13.5749  -10.3125    0.0000 O   0  0  0  0  0  0  0  0  0  0  0  0
   14.2894  -10.7250    0.0000 C   0  0  0  0  0  0  0  0  0  0  0  0
   14.2894  -11.5500    0.0000 O   0  0  0  0  0  0  0  0  0  0  0  0
   15.0039  -10.3125    0.0000 C   0  0  0  0  0  0  0  0  0  0  0  0
   15.7184  -10.7250    0.0000 C   0  0  0  0  0  0  0  0  0  0  0  0
   16.4328  -10.3125    0.0000 C   0  0  0  0  0  0  0  0  0  0  0  0
   17.1473  -10.7250    0.0000 C   0  0  0  0  0  0  0  0  0  0  0  0
   17.8618  -10.3125    0.0000 C   0  0  0  0  0  0  0  0  0  0  0  0
   18.5762  -10.7250    0.0000 C   0  0  0  0  0  0  0  0  0  0  0  0
   17.8618   -9.4875    0.0000 C   0  0  0  0  0  0  0  0  0  0  0  0
   18.5762   -9.0750    0.0000 O   0  0  0  0  0  0  0  0  0  0  0  0
   17.1473   -9.0750    0.0000 C   0  0  0  0  0  0  0  0  0  0  0  0
   17.1473   -8.2500    0.0000 C   0  0  0  0  0  0  0  0  0  0  0  0
   17.1473   -7.4250    0.0000 C   0  0  0  0  0  0  0  0  0  0  0  0
   16.3223   -8.2500    0.0000 C   0  0  0  0  0  0  0  0  0  0  0  0
   17.9723   -8.2500    0.0000 C   0  0  0  0  0  0  0  0  0  0  0  0
   16.4328   -9.4875    0.0000 C   0  0  0  0  0  0  0  0  0  0  0  0
    3.5723  -10.3125    0.0000 C   0  0  0  0  0  0  0  0  0  0  0  0
    2.8579  -10.7250    0.0000 C   0  0  0  0  0  0  0  0  0  0  0  0
    2.1434  -10.3125    0.0000 C   0  0  0  0  0  0  0  0  0  0  0  0
    1.4289   -9.9000    0.0000 C   0  0  0  0  0  0  0  0  0  0  0  0
    2.5559   -9.5980    0.0000 C   0  0  0  0  0  0  0  0  0  0  0  0
    1.7309  -11.0270    0.0000 C   0  0  0  0  0  0  0  0  0  0  0  0
    2.8579  -11.5500    0.0000 C   0  0  0  0  0  0  0  0  0  0  0  0
    2.1434  -11.9625    0.0000 O   0  0  0  0  0  0  0  0  0  0  0  0
  1  2  1  0  0  0  0
  3  2  1  0  0  0  0
  4  3  2  0  0  0  0
  4  5  1  0  0  0  0
  5  6  1  0  0  0  0
  6  7  1  0  0  0  0
  7  8  2  0  0  0  0
  7  9  1  0  0  0  0
  9 10  1  0  0  0  0
 10 11  1  0  0  0  0
 11 12  1  0  0  0  0
 12 13  1  0  0  0  0
 13 14  1  0  0  0  0
 14 15  1  0  0  0  0
 15 16  1  0  0  0  0
 16 17  1  0  0  0  0
 17 18  1  0  0  0  0
 18 19  1  0  0  0  0
 19 20  2  0  0  0  0
 19 21  1  0  0  0  0
 21 22  1  0  0  0  0
 22 23  1  0  0  0  0
 24 23  1  0  0  0  0
 25 24  2  0  0  0  0
 25 26  1  0  0  0  0
 27 25  1  0  0  0  0
 27 28  1  0  0  0  0
 29 27  2  0  0  0  0
 29 30  1  0  0  0  0
 30 31  1  0  0  0  0
 30 32  1  0  0  0  0
 30 33  1  0  0  0  0
 34 29  1  0  0  0  0
 23 34  2  0  0  0  0
 35  4  1  0  0  0  0
 36 35  2  0  0  0  0
 36 37  1  0  0  0  0
 37 38  1  0  0  0  0
 37 39  1  0  0  0  0
 37 40  1  0  0  0  0
 41 36  1  0  0  0  0
  2 41  2  0  0  0  0
 41 42  1  0  0  0  0
M  END
> <RowID>
1156

> <Original_SMILES>
CC1C=C(CCC(=O)OCCOCCOCCOC(=O)CCC2C=C(C)C(O)=C(C=2)C(C)(C)C)C=C(C=1O)C(C)(C)C

> <Canonical_QSARr>
CC1C=C(CCC(=O)OCCOCCOCCOC(=O)CCC2C=C(C)C(O)=C(C=2)C(C)(C)C)C=C(C=1O)C(C)(C)C

> <InChI_Code_QSARr>
InChI=1S/C34H50O8/c1-23-19-25(21-27(31(23)37)33(3,4)5)9-11-29(35)41-17-15-39-13-14-40-16-18-42-30(36)12-10-26-20-24(2)32(38)28(22-26)34(6,7)8/h19-22,37-38H,9-18H2,1-8H3

> <InChI Key_QSARr>
QSRJVOOOWGXUDY-UHFFFAOYSA-N

> <Salt_Solvent>


> <Salt_Solvent_ID>
0

> <Number of connected components>
1

$$$$
Molecule_1157
  Mrv2316 01072400032D          

 29 31  0  0  0  0            999 V2000
   -0.4927   -4.1534    0.0000 O   0  0  0  0  0  0  0  0  0  0  0  0
   -0.4927   -3.3284    0.0000 S   0  0  0  0  0  0  0  0  0  0  0  0
   -1.3177   -3.3284    0.0000 O   0  0  0  0  0  0  0  0  0  0  0  0
    0.3323   -3.3284    0.0000 O   0  0  0  0  0  0  0  0  0  0  0  0
   -0.4927   -2.5034    0.0000 C   0  0  0  0  0  0  0  0  0  0  0  0
    0.2217   -2.0909    0.0000 C   0  0  0  0  0  0  0  0  0  0  0  0
    0.2217   -1.2659    0.0000 C   0  0  0  0  0  0  0  0  0  0  0  0
    0.9362   -0.8534    0.0000 C   0  0  0  0  0  0  0  0  0  0  0  0
    1.6507   -1.2659    0.0000 C   0  0  0  0  0  0  0  0  0  0  0  0
    1.6507   -2.0909    0.0000 C   0  0  0  0  0  0  0  0  0  0  0  0
    0.9362   -2.5034    0.0000 C   0  0  0  0  0  0  0  0  0  0  0  0
   -0.4927   -0.8534    0.0000 C   0  0  0  0  0  0  0  0  0  0  0  0
   -0.4927   -0.0284    0.0000 O   0  0  0  0  0  0  0  0  0  0  0  0
   -1.2072   -1.2659    0.0000 C   0  0  0  0  0  0  0  0  0  0  0  0
   -1.9217   -0.8534    0.0000 N   0  0  0  0  0  0  0  0  0  0  0  0
   -1.9217   -0.0284    0.0000 N   0  0  0  0  0  0  0  0  0  0  0  0
   -2.6362    0.3841    0.0000 C   0  0  0  0  0  0  0  0  0  0  0  0
   -2.6362    1.2091    0.0000 C   0  0  0  0  0  0  0  0  0  0  0  0
   -3.3506    1.6216    0.0000 C   0  0  0  0  0  0  0  0  0  0  0  0
   -3.3506    2.4466    0.0000 S   0  0  0  0  0  0  0  0  0  0  0  0
   -3.3506    3.2716    0.0000 O   0  0  0  0  0  0  0  0  0  0  0  0
   -2.5256    2.4466    0.0000 O   0  0  0  0  0  0  0  0  0  0  0  0
   -4.1756    2.4466    0.0000 O   0  0  0  0  0  0  0  0  0  0  0  0
   -4.0651    1.2091    0.0000 C   0  0  0  0  0  0  0  0  0  0  0  0
   -4.7796    1.6216    0.0000 C   0  0  0  0  0  0  0  0  0  0  0  0
   -4.0651    0.3841    0.0000 C   0  0  0  0  0  0  0  0  0  0  0  0
   -3.3506   -0.0284    0.0000 C   0  0  0  0  0  0  0  0  0  0  0  0
   -3.3506   -0.8534    0.0000 C   0  0  0  0  0  0  0  0  0  0  0  0
   -1.2072   -2.0909    0.0000 C   0  0  0  0  0  0  0  0  0  0  0  0
  1  2  1  0  0  0  0
  2  3  2  0  0  0  0
  2  4  2  0  0  0  0
  2  5  1  0  0  0  0
  6  5  1  0  0  0  0
  6  7  2  0  0  0  0
  7  8  1  0  0  0  0
  8  9  2  0  0  0  0
  9 10  1  0  0  0  0
 10 11  2  0  0  0  0
 11  6  1  0  0  0  0
 12  7  1  0  0  0  0
 12 13  1  0  0  0  0
 14 12  2  0  0  0  0
 15 14  1  4  0  0  0
 15 16  2  0  0  0  0
 16 17  1  0  0  0  0
 18 17  2  0  0  0  0
 19 18  1  0  0  0  0
 19 20  1  0  0  0  0
 20 21  1  0  0  0  0
 20 22  2  0  0  0  0
 20 23  2  0  0  0  0
 24 19  2  0  0  0  0
 24 25  1  0  0  0  0
 26 24  1  0  0  0  0
 27 26  2  0  0  0  0
 17 27  1  0  0  0  0
 27 28  1  0  0  0  0
 29 14  1  0  0  0  0
  5 29  2  0  0  0  0
M  END
> <RowID>
1157

> <Original_SMILES>
[Na+].[Na+].CC1C=C(C)C(=CC=1S([O-])(=O)=O)N=NC1=CC(=C2C=CC=CC2=C1O)S([O-])(=O)=O

> <Canonical_QSARr>
CC1C=C(C)C(=CC=1S(O)(=O)=O)N=NC1C=C(C2C=CC=CC=2C=1O)S(O)(=O)=O

> <InChI_Code_QSARr>
InChI=1S/C18H16N2O7S2/c1-10-7-11(2)16(28(22,23)24)8-14(10)19-20-15-9-17(29(25,26)27)12-5-3-4-6-13(12)18(15)21/h3-9,21H,1-2H3,(H,22,23,24)(H,25,26,27)

> <InChI Key_QSARr>
DZCOAQKTFAIFRV-UHFFFAOYSA-N

> <Salt_Solvent>
[Na+]

> <Salt_Solvent_ID>
110

> <Number of connected components>
3

$$$$
Molecule_1160
  Mrv2316 01072400032D          

 28 29  0  0  0  0            999 V2000
   -2.1434   -5.7750    0.0000 C   0  0  0  0  0  0  0  0  0  0  0  0
   -1.4289   -5.3625    0.0000 C   0  0  0  0  0  0  0  0  0  0  0  0
   -1.0164   -6.0770    0.0000 C   0  0  0  0  0  0  0  0  0  0  0  0
   -1.8414   -4.6480    0.0000 C   0  0  0  0  0  0  0  0  0  0  0  0
   -0.7144   -4.9500    0.0000 C   0  0  0  0  0  0  0  0  0  0  0  0
    0.0000   -5.3625    0.0000 C   0  0  0  0  0  0  0  0  0  0  0  0
    0.7145   -4.9500    0.0000 C   0  0  0  0  0  0  0  0  0  0  0  0
    0.7145   -4.1250    0.0000 C   0  0  0  0  0  0  0  0  0  0  0  0
    1.4290   -3.7125    0.0000 O   0  0  0  0  0  0  0  0  0  0  0  0
    2.1434   -4.1250    0.0000 C   0  0  0  0  0  0  0  0  0  0  0  0
    2.1434   -4.9500    0.0000 O   0  0  0  0  0  0  0  0  0  0  0  0
    2.8579   -3.7125    0.0000 O   0  0  0  0  0  0  0  0  0  0  0  0
    3.5724   -4.1250    0.0000 O   0  0  0  0  0  0  0  0  0  0  0  0
    4.2869   -3.7125    0.0000 C   0  0  0  0  0  0  0  0  0  0  0  0
    4.2869   -2.8875    0.0000 O   0  0  0  0  0  0  0  0  0  0  0  0
    5.0013   -4.1250    0.0000 O   0  0  0  0  0  0  0  0  0  0  0  0
    5.7158   -3.7125    0.0000 C   0  0  0  0  0  0  0  0  0  0  0  0
    6.4303   -4.1250    0.0000 C   0  0  0  0  0  0  0  0  0  0  0  0
    7.1447   -3.7125    0.0000 C   0  0  0  0  0  0  0  0  0  0  0  0
    7.1447   -2.8875    0.0000 C   0  0  0  0  0  0  0  0  0  0  0  0
    7.8592   -2.4750    0.0000 C   0  0  0  0  0  0  0  0  0  0  0  0
    8.5737   -2.0625    0.0000 C   0  0  0  0  0  0  0  0  0  0  0  0
    8.2717   -3.1895    0.0000 C   0  0  0  0  0  0  0  0  0  0  0  0
    7.4467   -1.7605    0.0000 C   0  0  0  0  0  0  0  0  0  0  0  0
    6.4303   -2.4750    0.0000 C   0  0  0  0  0  0  0  0  0  0  0  0
    5.7158   -2.8875    0.0000 C   0  0  0  0  0  0  0  0  0  0  0  0
    0.0000   -3.7125    0.0000 C   0  0  0  0  0  0  0  0  0  0  0  0
   -0.7144   -4.1250    0.0000 C   0  0  0  0  0  0  0  0  0  0  0  0
  1  2  1  0  0  0  0
  2  3  1  0  0  0  0
  2  4  1  0  0  0  0
  2  5  1  0  0  0  0
  6  5  1  0  0  0  0
  7  6  1  0  0  0  0
  8  7  1  0  0  0  0
  8  9  1  0  0  0  0
  9 10  1  0  0  0  0
 10 11  2  0  0  0  0
 10 12  1  0  0  0  0
 12 13  1  0  0  0  0
 13 14  1  0  0  0  0
 14 15  2  0  0  0  0
 14 16  1  0  0  0  0
 16 17  1  0  0  0  0
 18 17  1  0  0  0  0
 19 18  1  0  0  0  0
 20 19  1  0  0  0  0
 20 21  1  0  0  0  0
 21 22  1  0  0  0  0
 21 23  1  0  0  0  0
 21 24  1  0  0  0  0
 25 20  1  0  0  0  0
 26 25  1  0  0  0  0
 17 26  1  0  0  0  0
 27  8  1  0  0  0  0
 28 27  1  0  0  0  0
  5 28  1  0  0  0  0
M  END
> <RowID>
1160

> <Original_SMILES>
CC(C)(C)C1CCC(CC1)OC(=O)OOC(=O)OC1CCC(CC1)C(C)(C)C

> <Canonical_QSARr>
CC(C)(C)C1CCC(CC1)OC(=O)OOC(=O)OC1CCC(CC1)C(C)(C)C

> <InChI_Code_QSARr>
InChI=1S/C22H38O6/c1-21(2,3)15-7-11-17(12-8-15)25-19(23)27-28-20(24)26-18-13-9-16(10-14-18)22(4,5)6/h15-18H,7-14H2,1-6H3

> <InChI Key_QSARr>
NOBYOEQUFMGXBP-UHFFFAOYSA-N

> <Salt_Solvent>


> <Salt_Solvent_ID>
0

> <Number of connected components>
1

$$$$
Molecule_1161
  Mrv2316 01072400032D          

 14 15  0  0  0  0            999 V2000
   -0.6784   -1.1104    0.0000 C   0  0  0  0  0  0  0  0  0  0  0  0
    0.1341   -1.2536    0.0000 C   0  0  0  0  0  0  0  0  0  0  0  0
   -0.1481   -2.0289    0.0000 C   0  0  0  0  0  0  0  0  0  0  0  0
    0.1341   -0.4286    0.0000 C   0  0  0  0  0  0  0  0  0  0  0  0
   -0.5804   -0.0161    0.0000 O   0  0  0  0  0  0  0  0  0  0  0  0
   -0.5804    0.8089    0.0000 C   0  0  0  0  0  0  0  0  0  0  0  0
   -1.2949    1.2214    0.0000 C   0  0  0  0  0  0  0  0  0  0  0  0
    0.1341    1.2214    0.0000 O   0  0  0  0  0  0  0  0  0  0  0  0
    0.8485   -0.0161    0.0000 C   0  0  0  0  0  0  0  0  0  0  0  0
    0.8485    0.8089    0.0000 C   0  0  0  0  0  0  0  0  0  0  0  0
    1.0548   -0.8411    0.0000 C   0  0  0  0  0  0  0  0  0  0  0  0
    0.8485   -1.6661    0.0000 C   0  0  0  0  0  0  0  0  0  0  0  0
    1.5630   -1.2536    0.0000 C   0  0  0  0  0  0  0  0  0  0  0  0
    1.5630   -0.4286    0.0000 C   0  0  0  0  0  0  0  0  0  0  0  0
  1  2  1  0  0  0  0
  2  3  1  0  0  0  0
  4  2  1  0  0  0  0
  4  5  1  0  0  0  0
  5  6  1  0  0  0  0
  6  7  1  0  0  0  0
  6  8  2  0  0  0  0
  9  4  1  0  0  0  0
  9 10  1  0  0  0  0
  9 11  1  0  0  0  0
 11 12  1  0  0  0  0
  2 12  1  0  0  0  0
 12 13  1  0  0  0  0
 13 14  1  0  0  0  0
 14  9  1  0  0  0  0
M  END
> <RowID>
1161

> <Original_SMILES>
CC1(C)C(OC(C)=O)C2(C)CC1CC2

> <Canonical_QSARr>
CC1(C)C(OC(C)=O)C2(C)CC1CC2

> <InChI_Code_QSARr>
InChI=1S/C12H20O2/c1-8(13)14-10-11(2,3)9-5-6-12(10,4)7-9/h9-10H,5-7H2,1-4H3

> <InChI Key_QSARr>
JUWUWIGZUVEFQB-UHFFFAOYSA-N

> <Salt_Solvent>


> <Salt_Solvent_ID>
0

> <Number of connected components>
1

$$$$
Molecule_1162
  Mrv2316 01072400032D          

 12 12  0  0  0  0            999 V2000
    1.7862   -0.2062    0.0000 N   0  0  0  0  0  0  0  0  0  0  0  0
    1.0717    0.2063    0.0000 C   0  0  0  0  0  0  0  0  0  0  0  0
    1.0717    1.0313    0.0000 C   0  0  0  0  0  0  0  0  0  0  0  0
    1.7862    1.4438    0.0000 C   0  0  0  0  0  0  0  0  0  0  0  0
    1.7862    2.2688    0.0000 C   0  0  0  0  0  0  0  0  0  0  0  0
    1.0717    2.6812    0.0000 C   0  0  0  0  0  0  0  0  0  0  0  0
    1.0717    3.5063    0.0000 O   0  0  0  0  0  0  0  0  0  0  0  0
    0.3572    2.2688    0.0000 C   0  0  0  0  0  0  0  0  0  0  0  0
    0.3572    1.4438    0.0000 C   0  0  0  0  0  0  0  0  0  0  0  0
    0.3572   -0.2062    0.0000 C   0  0  0  0  0  0  0  0  0  0  0  0
    0.3572   -1.0312    0.0000 O   0  0  0  0  0  0  0  0  0  0  0  0
   -0.3572    0.2063    0.0000 O   0  0  0  0  0  0  0  0  0  0  0  0
  1  2  1  0  0  0  0
  2  3  1  0  0  0  0
  4  3  2  0  0  0  0
  5  4  1  0  0  0  0
  6  5  2  0  0  0  0
  6  7  1  0  0  0  0
  8  6  1  0  0  0  0
  9  8  2  0  0  0  0
  3  9  1  0  0  0  0
  2 10  1  0  0  0  0
 10 11  1  0  0  0  0
 10 12  2  0  0  0  0
M  END
> <RowID>
1162

> <Original_SMILES>
NC(C1=CC=C(O)C=C1)C(O)=O

> <Canonical_QSARr>
NC(C1=CC=C(O)C=C1)C(O)=O

> <InChI_Code_QSARr>
InChI=1S/C8H9NO3/c9-7(8(11)12)5-1-3-6(10)4-2-5/h1-4,7,10H,9H2,(H,11,12)

> <InChI Key_QSARr>
LJCWONGJFPCTTL-UHFFFAOYSA-N

> <Salt_Solvent>


> <Salt_Solvent_ID>
0

> <Number of connected components>
1

$$$$
Molecule_1163
  Mrv2316 01072400032D          

 18 18  0  0  0  0            999 V2000
    4.5250   -0.1375    0.0000 O   0  5  0  0  0  0  0  0  0  0  0  0
    3.8105    0.2750    0.0000 N   0  3  0  0  0  0  0  0  0  0  0  0
    3.8105    1.1000    0.0000 O   0  0  0  0  0  0  0  0  0  0  0  0
    3.0960   -0.1375    0.0000 C   0  0  0  0  0  0  0  0  0  0  0  0
    2.3816    0.2750    0.0000 C   0  0  0  0  0  0  0  0  0  0  0  0
    2.3816    1.1000    0.0000 O   0  0  0  0  0  0  0  0  0  0  0  0
    1.6671    1.5125    0.0000 C   0  0  0  0  0  0  0  0  0  0  0  0
    1.6671    2.3375    0.0000 C   0  0  0  0  0  0  0  0  0  0  0  0
    0.9526    2.7500    0.0000 C   0  0  0  0  0  0  0  0  0  0  0  0
    0.9526    3.5750    0.0000 S   0  0  0  0  0  0  0  0  0  0  0  0
    0.9526    4.4000    0.0000 O   0  0  0  0  0  0  0  0  0  0  0  0
    0.1276    3.5750    0.0000 O   0  0  0  0  0  0  0  0  0  0  0  0
    1.7776    3.5750    0.0000 O   0  0  0  0  0  0  0  0  0  0  0  0
    1.6671   -0.1375    0.0000 C   0  0  0  0  0  0  0  0  0  0  0  0
    1.6671   -0.9625    0.0000 C   0  0  0  0  0  0  0  0  0  0  0  0
    2.3816   -1.3750    0.0000 C   0  0  0  0  0  0  0  0  0  0  0  0
    2.3816   -2.2000    0.0000 C   0  0  0  0  0  0  0  0  0  0  0  0
    3.0960   -0.9625    0.0000 C   0  0  0  0  0  0  0  0  0  0  0  0
  1  2  1  0  0  0  0
  2  3  2  0  0  0  0
  2  4  1  0  0  0  0
  5  4  2  0  0  0  0
  5  6  1  0  0  0  0
  6  7  1  0  0  0  0
  7  8  1  0  0  0  0
  8  9  1  0  0  0  0
  9 10  1  0  0  0  0
 10 11  1  0  0  0  0
 10 12  2  0  0  0  0
 10 13  2  0  0  0  0
 14  5  1  0  0  0  0
 15 14  2  0  0  0  0
 16 15  1  0  0  0  0
 16 17  1  0  0  0  0
 18 16  2  0  0  0  0
  4 18  1  0  0  0  0
M  CHG  2   1  -1   2   1
M  END
> <RowID>
1163

> <Original_SMILES>
[Na+].CC1=CC(=C(C=C1)OCCCS([O-])(=O)=O)N(=O)=O

> <Canonical_QSARr>
CC1=CC(=C(C=C1)OCCCS(O)(=O)=O)[N+]([O-])=O

> <InChI_Code_QSARr>
InChI=1S/C10H13NO6S/c1-8-3-4-10(9(7-8)11(12)13)17-5-2-6-18(14,15)16/h3-4,7H,2,5-6H2,1H3,(H,14,15,16)

> <InChI Key_QSARr>
USOXFCZQOCMJEH-UHFFFAOYSA-N

> <Salt_Solvent>
[Na+]

> <Salt_Solvent_ID>
110

> <Number of connected components>
2

$$$$
Molecule_1164
  Mrv2316 01072400032D          

 30 29  0  0  0  0            999 V2000
   15.3696    9.6993    0.0000 C   0  0  0  0  0  0  0  0  0  0  0  0
   16.0841    9.2868    0.0000 C   0  0  0  0  0  0  0  0  0  0  0  0
   16.7985    9.6993    0.0000 C   0  0  0  0  0  0  0  0  0  0  0  0
   17.5130    9.2868    0.0000 C   0  0  0  0  0  0  0  0  0  0  0  0
   18.2275    9.6993    0.0000 C   0  0  0  0  0  0  0  0  0  0  0  0
   18.9420    9.2868    0.0000 C   0  0  0  0  0  0  0  0  0  0  0  0
   19.6564    9.6993    0.0000 C   0  0  0  0  0  0  0  0  0  0  0  0
   20.3709    9.2868    0.0000 C   0  0  0  0  0  0  0  0  0  0  0  0
   21.0854    9.6993    0.0000 C   0  0  0  0  0  0  0  0  0  0  0  0
   21.7998    9.2868    0.0000 C   0  0  0  0  0  0  0  0  0  0  0  0
   22.5143    9.6993    0.0000 C   0  0  0  0  0  0  0  0  0  0  0  0
   23.2288    9.2868    0.0000 C   0  0  0  0  0  0  0  0  0  0  0  0
   23.9433    9.6993    0.0000 C   0  0  0  0  0  0  0  0  0  0  0  0
   24.6577    9.2868    0.0000 C   0  0  0  0  0  0  0  0  0  0  0  0
   24.6577    8.4618    0.0000 O   0  0  0  0  0  0  0  0  0  0  0  0
   25.3722    9.6993    0.0000 O   0  0  0  0  0  0  0  0  0  0  0  0
   26.0867    9.2868    0.0000 C   0  0  0  0  0  0  0  0  0  0  0  0
   26.8011    9.6993    0.0000 C   0  0  0  0  0  0  0  0  0  0  0  0
   27.5156    9.2868    0.0000 C   0  0  0  0  0  0  0  0  0  0  0  0
   28.2301    9.6993    0.0000 C   0  0  0  0  0  0  0  0  0  0  0  0
   28.9445    9.2868    0.0000 C   0  0  0  0  0  0  0  0  0  0  0  0
   29.6590    9.6993    0.0000 C   0  0  0  0  0  0  0  0  0  0  0  0
   30.3735    9.2868    0.0000 C   0  0  0  0  0  0  0  0  0  0  0  0
   31.0880    9.6993    0.0000 C   0  0  0  0  0  0  0  0  0  0  0  0
   31.8024    9.2868    0.0000 C   0  0  0  0  0  0  0  0  0  0  0  0
   32.5169    9.6993    0.0000 C   0  0  0  0  0  0  0  0  0  0  0  0
   33.2314    9.2868    0.0000 C   0  0  0  0  0  0  0  0  0  0  0  0
   33.9458    9.6993    0.0000 C   0  0  0  0  0  0  0  0  0  0  0  0
   34.6603    9.2868    0.0000 C   0  0  0  0  0  0  0  0  0  0  0  0
   35.3748    9.6993    0.0000 C   0  0  0  0  0  0  0  0  0  0  0  0
  1  2  1  0  0  0  0
  2  3  1  0  0  0  0
  3  4  1  0  0  0  0
  4  5  1  0  0  0  0
  5  6  1  0  0  0  0
  6  7  1  0  0  0  0
  7  8  1  0  0  0  0
  8  9  1  0  0  0  0
  9 10  1  0  0  0  0
 10 11  1  0  0  0  0
 11 12  1  0  0  0  0
 12 13  1  0  0  0  0
 13 14  1  0  0  0  0
 14 15  2  0  0  0  0
 14 16  1  0  0  0  0
 16 17  1  0  0  0  0
 17 18  1  0  0  0  0
 18 19  1  0  0  0  0
 19 20  1  0  0  0  0
 20 21  1  0  0  0  0
 21 22  1  0  0  0  0
 22 23  1  0  0  0  0
 23 24  1  0  0  0  0
 24 25  1  0  0  0  0
 25 26  1  0  0  0  0
 26 27  1  0  0  0  0
 27 28  1  0  0  0  0
 28 29  1  0  0  0  0
 29 30  1  0  0  0  0
M  END
> <RowID>
1164

> <Original_SMILES>
CCCCCCCCCCCCCC(=O)OCCCCCCCCCCCCCC

> <Canonical_QSARr>
CCCCCCCCCCCCCC(=O)OCCCCCCCCCCCCCC

> <InChI_Code_QSARr>
InChI=1S/C28H56O2/c1-3-5-7-9-11-13-15-17-19-21-23-25-27-30-28(29)26-24-22-20-18-16-14-12-10-8-6-4-2/h3-27H2,1-2H3

> <InChI Key_QSARr>
DZKXJUASMGQEMA-UHFFFAOYSA-N

> <Salt_Solvent>


> <Salt_Solvent_ID>
0

> <Number of connected components>
1

$$$$
Molecule_1166
  Mrv2316 01072400032D          

 10 11  0  0  0  0            999 V2000
   -0.1712   -0.6979    0.0000 S   0  0  0  0  0  0  0  0  0  0  0  0
    0.6538   -0.6979    0.0000 C   0  0  0  0  0  0  0  0  0  0  0  0
    1.1387   -0.0305    0.0000 N   0  0  0  0  0  0  0  0  0  0  0  0
    1.9233   -0.2854    0.0000 C   0  0  0  0  0  0  0  0  0  0  0  0
    2.6378    0.1271    0.0000 C   0  0  0  0  0  0  0  0  0  0  0  0
    3.3523   -0.2854    0.0000 C   0  0  0  0  0  0  0  0  0  0  0  0
    3.3523   -1.1104    0.0000 C   0  0  0  0  0  0  0  0  0  0  0  0
    2.6378   -1.5229    0.0000 C   0  0  0  0  0  0  0  0  0  0  0  0
    1.9233   -1.1104    0.0000 C   0  0  0  0  0  0  0  0  0  0  0  0
    1.1387   -1.3653    0.0000 S   0  0  0  0  0  0  0  0  0  0  0  0
  1  2  1  0  0  0  0
  3  2  2  0  0  0  0
  4  3  1  0  0  0  0
  4  5  1  0  0  0  0
  5  6  2  0  0  0  0
  6  7  1  0  0  0  0
  7  8  2  0  0  0  0
  8  9  1  0  0  0  0
  9  4  2  0  0  0  0
 10  9  1  0  0  0  0
  2 10  1  0  0  0  0
M  END
> <RowID>
1166

> <Original_SMILES>
SC1=NC2C=CC=CC=2S1

> <Canonical_QSARr>
SC1=NC2C=CC=CC=2S1

> <InChI_Code_QSARr>
InChI=1S/C7H5NS2/c9-7-8-5-3-1-2-4-6(5)10-7/h1-4H,(H,8,9)

> <InChI Key_QSARr>
YXIWHUQXZSMYRE-UHFFFAOYSA-N

> <Salt_Solvent>


> <Salt_Solvent_ID>
0

> <Number of connected components>
1

$$$$
Molecule_1167
  Mrv2316 01072400032D          

 16 16  0  0  0  0            999 V2000
   -2.6793    0.8250    0.0000 C   0  0  0  0  0  0  0  0  0  0  0  0
   -1.9648    1.2375    0.0000 C   0  0  0  0  0  0  0  0  0  0  0  0
   -1.2503    0.8250    0.0000 O   0  0  0  0  0  0  0  0  0  0  0  0
   -0.5359    1.2375    0.0000 C   0  0  0  0  0  0  0  0  0  0  0  0
   -0.5359    2.0625    0.0000 O   0  0  0  0  0  0  0  0  0  0  0  0
    0.1786    0.8250    0.0000 C   0  0  0  0  0  0  0  0  0  0  0  0
    0.1786   -0.0000    0.0000 C   0  0  0  0  0  0  0  0  0  0  0  0
    0.8931   -0.4125    0.0000 C   0  0  0  0  0  0  0  0  0  0  0  0
    1.6076   -0.0000    0.0000 C   0  0  0  0  0  0  0  0  0  0  0  0
    1.6076    0.8250    0.0000 C   0  0  0  0  0  0  0  0  0  0  0  0
    0.8931    1.2375    0.0000 C   0  0  0  0  0  0  0  0  0  0  0  0
    0.8931    2.0625    0.0000 C   0  0  0  0  0  0  0  0  0  0  0  0
    1.6076    2.4750    0.0000 O   0  0  0  0  0  0  0  0  0  0  0  0
    0.1786    2.4750    0.0000 O   0  0  0  0  0  0  0  0  0  0  0  0
    0.1786    3.3000    0.0000 C   0  0  0  0  0  0  0  0  0  0  0  0
    0.8931    3.7125    0.0000 C   0  0  0  0  0  0  0  0  0  0  0  0
  1  2  1  0  0  0  0
  2  3  1  0  0  0  0
  3  4  1  0  0  0  0
  4  5  2  0  0  0  0
  4  6  1  0  0  0  0
  7  6  2  0  0  0  0
  8  7  1  0  0  0  0
  9  8  2  0  0  0  0
 10  9  1  0  0  0  0
 11 10  2  0  0  0  0
  6 11  1  0  0  0  0
 11 12  1  0  0  0  0
 12 13  2  0  0  0  0
 12 14  1  0  0  0  0
 14 15  1  0  0  0  0
 15 16  1  0  0  0  0
M  END
> <RowID>
1167

> <Original_SMILES>
CCOC(=O)C1=CC=CC=C1C(=O)OCC

> <Canonical_QSARr>
CCOC(=O)C1=CC=CC=C1C(=O)OCC

> <InChI_Code_QSARr>
InChI=1S/C12H14O4/c1-3-15-11(13)9-7-5-6-8-10(9)12(14)16-4-2/h5-8H,3-4H2,1-2H3

> <InChI Key_QSARr>
FLKPEMZONWLCSK-UHFFFAOYSA-N

> <Salt_Solvent>


> <Salt_Solvent_ID>
0

> <Number of connected components>
1

$$$$
Molecule_1168
  Mrv2316 01072400032D          

 13 12  0  0  0  0            999 V2000
    1.9520    1.9520    0.0000 C   0  0  0  0  0  0  0  0  0  0  0  0
    1.9520    1.1270    0.0000 C   0  0  0  0  0  0  0  0  0  0  0  0
    1.2375    0.7145    0.0000 C   0  0  0  0  0  0  0  0  0  0  0  0
    0.5230    1.1270    0.0000 C   0  0  0  0  0  0  0  0  0  0  0  0
   -0.1914    0.7145    0.0000 C   0  0  0  0  0  0  0  0  0  0  0  0
   -0.9059    1.1270    0.0000 C   0  0  0  0  0  0  0  0  0  0  0  0
   -0.9059    1.9520    0.0000 C   0  0  0  0  0  0  0  0  0  0  0  0
   -1.6204    0.7145    0.0000 C   0  0  0  0  0  0  0  0  0  0  0  0
   -2.3349    1.1270    0.0000 C   0  0  0  0  0  0  0  0  0  0  0  0
   -3.0493    0.7145    0.0000 C   0  0  0  0  0  0  0  0  0  0  0  0
   -3.7638    1.1270    0.0000 O   0  0  0  0  0  0  0  0  0  0  0  0
    2.6664    0.7145    0.0000 C   0  0  0  0  0  0  0  0  0  0  0  0
    3.3809    1.1270    0.0000 C   0  0  0  0  0  0  0  0  0  0  0  0
  1  2  1  0  0  0  0
  2  3  1  0  0  0  0
  3  4  1  0  0  0  0
  5  4  1  4  0  0  0
  5  6  2  0  0  0  0
  6  7  1  0  0  0  0
  6  8  1  0  0  0  0
  8  9  1  0  0  0  0
  9 10  1  0  0  0  0
 10 11  2  0  0  0  0
  2 12  1  0  0  0  0
 12 13  2  0  0  0  0
M  END
> <RowID>
1168

> <Original_SMILES>
CC(CCC=C(C)CCC=O)C=C

> <Canonical_QSARr>
CC(CCC=C(C)CCC=O)C=C

> <InChI_Code_QSARr>
InChI=1S/C12H20O/c1-4-11(2)7-5-8-12(3)9-6-10-13/h4,8,10-11H,1,5-7,9H2,2-3H3

> <InChI Key_QSARr>
QVEOSYKPYFNQAZ-UHFFFAOYSA-N

> <Salt_Solvent>


> <Salt_Solvent_ID>
0

> <Number of connected components>
1

$$$$
Molecule_1169
  Mrv2316 01072400032D          

 33 36  0  0  0  0            999 V2000
    0.3464    2.4000    0.0000 C   0  0  0  0  0  0  0  0  0  0  0  0
   -0.3681    1.9875    0.0000 C   0  0  0  0  0  0  0  0  0  0  0  0
   -1.0825    2.4000    0.0000 C   0  0  0  0  0  0  0  0  0  0  0  0
   -1.7970    1.9875    0.0000 C   0  0  0  0  0  0  0  0  0  0  0  0
   -1.7970    1.1625    0.0000 C   0  0  0  0  0  0  0  0  0  0  0  0
   -1.0825    0.7500    0.0000 C   0  0  0  0  0  0  0  0  0  0  0  0
   -0.3681    1.1625    0.0000 C   0  0  0  0  0  0  0  0  0  0  0  0
    0.3464    0.7500    0.0000 N   0  0  0  0  0  0  0  0  0  0  0  0
    0.3464   -0.0750    0.0000 C   0  0  0  0  0  0  0  0  0  0  0  0
   -0.3681   -0.4875    0.0000 O   0  0  0  0  0  0  0  0  0  0  0  0
    1.0609   -0.4875    0.0000 C   0  0  0  0  0  0  0  0  0  0  0  0
    1.7754   -0.0750    0.0000 C   0  0  0  0  0  0  0  0  0  0  0  0
    2.4898   -0.4875    0.0000 C   0  0  0  0  0  0  0  0  0  0  0  0
    3.2043   -0.0750    0.0000 C   0  0  0  0  0  0  0  0  0  0  0  0
    3.9188   -0.4875    0.0000 C   0  0  0  0  0  0  0  0  0  0  0  0
    3.9188   -1.3125    0.0000 C   0  0  0  0  0  0  0  0  0  0  0  0
    3.2043   -1.7250    0.0000 C   0  0  0  0  0  0  0  0  0  0  0  0
    2.4898   -1.3125    0.0000 C   0  0  0  0  0  0  0  0  0  0  0  0
    1.7754   -1.7250    0.0000 C   0  0  0  0  0  0  0  0  0  0  0  0
    1.7754   -2.5500    0.0000 N   0  0  0  0  0  0  0  0  0  0  0  0
    1.0609   -2.9625    0.0000 N   0  0  0  0  0  0  0  0  0  0  0  0
    1.0609   -3.7875    0.0000 C   0  0  0  0  0  0  0  0  0  0  0  0
    0.3464   -4.2000    0.0000 C   0  0  0  0  0  0  0  0  0  0  0  0
    0.3464   -5.0250    0.0000 C   0  0  0  0  0  0  0  0  0  0  0  0
    1.0609   -5.4375    0.0000 C   0  0  0  0  0  0  0  0  0  0  0  0
    1.0609   -6.2625    0.0000 N   0  3  0  0  0  0  0  0  0  0  0  0
    1.7754   -6.6750    0.0000 O   0  5  0  0  0  0  0  0  0  0  0  0
    0.3464   -6.6750    0.0000 O   0  0  0  0  0  0  0  0  0  0  0  0
    1.7754   -5.0250    0.0000 C   0  0  0  0  0  0  0  0  0  0  0  0
    1.7754   -4.2000    0.0000 C   0  0  0  0  0  0  0  0  0  0  0  0
    2.4898   -3.7875    0.0000 C   0  0  0  0  0  0  0  0  0  0  0  0
    1.0609   -1.3125    0.0000 C   0  0  0  0  0  0  0  0  0  0  0  0
    0.3464   -1.7250    0.0000 O   0  0  0  0  0  0  0  0  0  0  0  0
  1  2  1  0  0  0  0
  3  2  1  0  0  0  0
  4  3  2  0  0  0  0
  5  4  1  0  0  0  0
  6  5  2  0  0  0  0
  7  6  1  0  0  0  0
  2  7  2  0  0  0  0
  7  8  1  0  0  0  0
  8  9  1  0  0  0  0
  9 10  2  0  0  0  0
  9 11  1  0  0  0  0
 12 11  1  0  0  0  0
 13 12  2  0  0  0  0
 13 14  1  0  0  0  0
 14 15  2  0  0  0  0
 15 16  1  0  0  0  0
 16 17  2  0  0  0  0
 17 18  1  0  0  0  0
 18 13  1  0  0  0  0
 19 18  2  0  0  0  0
 20 19  1  4  0  0  0
 20 21  2  0  0  0  0
 21 22  1  0  0  0  0
 23 22  1  0  0  0  0
 24 23  2  0  0  0  0
 25 24  1  0  0  0  0
 25 26  1  0  0  0  0
 26 27  1  0  0  0  0
 26 28  2  0  0  0  0
 29 25  2  0  0  0  0
 30 29  1  0  0  0  0
 22 30  2  0  0  0  0
 30 31  1  0  0  0  0
 32 19  1  0  0  0  0
 11 32  2  0  0  0  0
 32 33  1  0  0  0  0
M  CHG  2  26   1  27  -1
M  END
> <RowID>
1169

> <Original_SMILES>
CC1C=CC=CC=1NC(=O)C1C=C2C=CC=CC2=C(N=NC2C=CC(=CC=2C)[N+]([O-])=O)C=1O

> <Canonical_QSARr>
CC1C=CC=CC=1NC(=O)C1C=C2C=CC=CC2=C(N=NC2C=CC(=CC=2C)[N+]([O-])=O)C=1O

> <InChI_Code_QSARr>
InChI=1S/C25H20N4O4/c1-15-7-3-6-10-21(15)26-25(31)20-14-17-8-4-5-9-19(17)23(24(20)30)28-27-22-12-11-18(29(32)33)13-16(22)2/h3-14,30H,1-2H3,(H,26,31)

> <InChI Key_QSARr>
KDLDNQQRGJAGIS-UHFFFAOYSA-N

> <Salt_Solvent>


> <Salt_Solvent_ID>
0

> <Number of connected components>
1

$$$$
Molecule_1170
  Mrv2316 01072400032D          

 22 21  0  0  0  0            999 V2000
    7.0125   -0.7145    0.0000 F   0  0  0  0  0  0  0  0  0  0  0  0
    6.1875   -0.7145    0.0000 C   0  0  0  0  0  0  0  0  0  0  0  0
    6.1875    0.1105    0.0000 F   0  0  0  0  0  0  0  0  0  0  0  0
    6.1875   -1.5395    0.0000 F   0  0  0  0  0  0  0  0  0  0  0  0
    5.3625   -0.7145    0.0000 C   0  0  0  0  0  0  0  0  0  0  0  0
    5.3625    0.1105    0.0000 F   0  0  0  0  0  0  0  0  0  0  0  0
    5.3625   -1.5395    0.0000 F   0  0  0  0  0  0  0  0  0  0  0  0
    4.5375   -0.7145    0.0000 C   0  0  0  0  0  0  0  0  0  0  0  0
    4.5375    0.1105    0.0000 F   0  0  0  0  0  0  0  0  0  0  0  0
    4.5375   -1.5395    0.0000 F   0  0  0  0  0  0  0  0  0  0  0  0
    3.7125   -0.7145    0.0000 C   0  0  0  0  0  0  0  0  0  0  0  0
    3.7125    0.1105    0.0000 F   0  0  0  0  0  0  0  0  0  0  0  0
    3.7125   -1.5395    0.0000 F   0  0  0  0  0  0  0  0  0  0  0  0
    2.8875   -0.7145    0.0000 C   0  0  0  0  0  0  0  0  0  0  0  0
    2.8875    0.1105    0.0000 F   0  0  0  0  0  0  0  0  0  0  0  0
    2.8875   -1.5395    0.0000 F   0  0  0  0  0  0  0  0  0  0  0  0
    2.0625   -0.7145    0.0000 C   0  0  0  0  0  0  0  0  0  0  0  0
    2.0625    0.1105    0.0000 F   0  0  0  0  0  0  0  0  0  0  0  0
    2.0625   -1.5395    0.0000 F   0  0  0  0  0  0  0  0  0  0  0  0
    1.2375   -0.7145    0.0000 C   0  0  0  0  0  0  0  0  0  0  0  0
    0.8250   -0.0000    0.0000 C   0  0  0  0  0  0  0  0  0  0  0  0
    0.0000   -0.0000    0.0000 I   0  0  0  0  0  0  0  0  0  0  0  0
  1  2  1  0  0  0  0
  2  3  1  0  0  0  0
  2  4  1  0  0  0  0
  2  5  1  0  0  0  0
  5  6  1  0  0  0  0
  5  7  1  0  0  0  0
  5  8  1  0  0  0  0
  8  9  1  0  0  0  0
  8 10  1  0  0  0  0
  8 11  1  0  0  0  0
 11 12  1  0  0  0  0
 11 13  1  0  0  0  0
 11 14  1  0  0  0  0
 14 15  1  0  0  0  0
 14 16  1  0  0  0  0
 14 17  1  0  0  0  0
 17 18  1  0  0  0  0
 17 19  1  0  0  0  0
 17 20  1  0  0  0  0
 20 21  1  0  0  0  0
 21 22  1  0  0  0  0
M  END
> <RowID>
1170

> <Original_SMILES>
FC(F)(F)C(F)(F)C(F)(F)C(F)(F)C(F)(F)C(F)(F)CCI

> <Canonical_QSARr>
FC(F)(F)C(F)(F)C(F)(F)C(F)(F)C(F)(F)C(F)(F)CCI

> <InChI_Code_QSARr>
InChI=1S/C8H4F13I/c9-3(10,1-2-22)4(11,12)5(13,14)6(15,16)7(17,18)8(19,20)21/h1-2H2

> <InChI Key_QSARr>
NVVZEKTVIXIUKW-UHFFFAOYSA-N

> <Salt_Solvent>


> <Salt_Solvent_ID>
0

> <Number of connected components>
1

$$$$
Molecule_1171
  Mrv2316 01072400032D          

 22 23  0  0  0  0            999 V2000
   -5.5209   -0.3375    0.0000 C   0  0  0  0  0  0  0  0  0  0  0  0
   -4.8064    0.0750    0.0000 C   0  0  0  0  0  0  0  0  0  0  0  0
   -4.0920   -0.3375    0.0000 O   0  0  0  0  0  0  0  0  0  0  0  0
   -3.3775    0.0750    0.0000 C   0  0  0  0  0  0  0  0  0  0  0  0
   -2.6630   -0.3375    0.0000 C   0  0  0  0  0  0  0  0  0  0  0  0
   -1.9486    0.0750    0.0000 C   0  0  0  0  0  0  0  0  0  0  0  0
   -1.9486    0.9000    0.0000 C   0  0  0  0  0  0  0  0  0  0  0  0
   -1.2341    1.3125    0.0000 C   0  0  0  0  0  0  0  0  0  0  0  0
   -0.5196    0.9000    0.0000 C   0  0  0  0  0  0  0  0  0  0  0  0
    0.1949    1.3125    0.0000 C   0  0  0  0  0  0  0  0  0  0  0  0
    0.1949    2.1375    0.0000 C   0  0  0  0  0  0  0  0  0  0  0  0
    0.9093    2.5500    0.0000 C   0  0  0  0  0  0  0  0  0  0  0  0
    1.6238    2.1375    0.0000 C   0  0  0  0  0  0  0  0  0  0  0  0
    2.3383    2.5500    0.0000 C   0  0  0  0  0  0  0  0  0  0  0  0
    3.0527    2.1375    0.0000 C   0  0  0  0  0  0  0  0  0  0  0  0
    3.7672    2.5500    0.0000 C   0  0  0  0  0  0  0  0  0  0  0  0
   -0.5196    2.5500    0.0000 C   0  0  0  0  0  0  0  0  0  0  0  0
   -1.2341    2.1375    0.0000 C   0  0  0  0  0  0  0  0  0  0  0  0
   -2.6630    1.3125    0.0000 C   0  0  0  0  0  0  0  0  0  0  0  0
   -2.6630    2.1375    0.0000 F   0  0  0  0  0  0  0  0  0  0  0  0
   -3.3775    0.9000    0.0000 C   0  0  0  0  0  0  0  0  0  0  0  0
   -4.0920    1.3125    0.0000 F   0  0  0  0  0  0  0  0  0  0  0  0
  1  2  1  0  0  0  0
  2  3  1  0  0  0  0
  3  4  1  0  0  0  0
  5  4  1  0  0  0  0
  6  5  2  0  0  0  0
  7  6  1  0  0  0  0
  7  8  1  0  0  0  0
  9  8  1  0  0  0  0
 10  9  1  0  0  0  0
 11 10  1  0  0  0  0
 11 12  1  0  0  0  0
 12 13  1  0  0  0  0
 13 14  1  0  0  0  0
 14 15  1  0  0  0  0
 15 16  1  0  0  0  0
 17 11  1  0  0  0  0
 18 17  1  0  0  0  0
  8 18  1  0  0  0  0
 19  7  2  0  0  0  0
 19 20  1  0  0  0  0
 21 19  1  0  0  0  0
  4 21  2  0  0  0  0
 21 22  1  0  0  0  0
M  END
> <RowID>
1171

> <Original_SMILES>
CCOC1C=CC(C2CCC(CCCCC)CC2)=C(F)C=1F

> <Canonical_QSARr>
CCOC1C=CC(C2CCC(CCCCC)CC2)=C(F)C=1F

> <InChI_Code_QSARr>
InChI=1S/C19H28F2O/c1-3-5-6-7-14-8-10-15(11-9-14)16-12-13-17(22-4-2)19(21)18(16)20/h12-15H,3-11H2,1-2H3

> <InChI Key_QSARr>
RFVOKVIZOOXEPB-UHFFFAOYSA-N

> <Salt_Solvent>


> <Salt_Solvent_ID>
0

> <Number of connected components>
1

$$$$
Molecule_1172
  Mrv2316 01072400032D          

  6  5  0  0  0  0            999 V2000
    1.2375    0.7145    0.0000 C   0  0  0  0  0  0  0  0  0  0  0  0
    0.8250    1.4289    0.0000 O   0  0  0  0  0  0  0  0  0  0  0  0
    2.0625    0.7145    0.0000 O   0  0  0  0  0  0  0  0  0  0  0  0
    0.8250   -0.0000    0.0000 C   0  0  0  0  0  0  0  0  0  0  0  0
    1.2375   -0.7145    0.0000 O   0  0  0  0  0  0  0  0  0  0  0  0
    0.0000   -0.0000    0.0000 O   0  0  0  0  0  0  0  0  0  0  0  0
  1  2  1  0  0  0  0
  1  3  2  0  0  0  0
  1  4  1  0  0  0  0
  4  5  1  0  0  0  0
  4  6  2  0  0  0  0
M  END
> <RowID>
1172

> <Original_SMILES>
[Ni+2].[O-]C(=O)C([O-])=O

> <Canonical_QSARr>
OC(=O)C(O)=O

> <InChI_Code_QSARr>
InChI=1S/C2H2O4/c3-1(4)2(5)6/h(H,3,4)(H,5,6)

> <InChI Key_QSARr>
MUBZPKHOEPUJKR-UHFFFAOYSA-N

> <Salt_Solvent>
[Ni+2]

> <Salt_Solvent_ID>
280

> <Number of connected components>
2

$$$$
Molecule_1173
  Mrv2316 01072400032D          

  3  2  0  0  0  0            999 V2000
    1.6500   -0.0000    0.0000 O   0  0  0  0  0  0  0  0  0  0  0  0
    2.4750   -0.0000    0.0000 C   0  0  0  0  0  0  0  0  0  0  0  0
    3.3000    0.0000    0.0000 N   0  0  0  0  0  0  0  0  0  0  0  0
  1  2  1  0  0  0  0
  2  3  3  0  0  0  0
M  END
> <RowID>
1173

> <Original_SMILES>
[Na+].N#C[O-]

> <Canonical_QSARr>
N#CO

> <InChI_Code_QSARr>
InChI=1S/CHNO/c2-1-3/h3H

> <InChI Key_QSARr>
XLJMAIOERFSOGZ-UHFFFAOYSA-N

> <Salt_Solvent>
[Na+]

> <Salt_Solvent_ID>
110

> <Number of connected components>
2

$$$$
Molecule_1175
  Mrv2316 01072400032D          

 46 47  0  0  0  0            999 V2000
    2.8579  -11.9625    0.0000 C   0  0  0  0  0  0  0  0  0  0  0  0
    2.8579  -11.1375    0.0000 C   0  0  0  0  0  0  0  0  0  0  0  0
    3.6829  -11.1375    0.0000 C   0  0  0  0  0  0  0  0  0  0  0  0
    2.0329  -11.1375    0.0000 C   0  0  0  0  0  0  0  0  0  0  0  0
    2.8579  -10.3125    0.0000 C   0  0  0  0  0  0  0  0  0  0  0  0
    3.5724   -9.9000    0.0000 C   0  0  0  0  0  0  0  0  0  0  0  0
    3.5724   -9.0750    0.0000 C   0  0  0  0  0  0  0  0  0  0  0  0
    4.2868   -8.6625    0.0000 C   0  0  0  0  0  0  0  0  0  0  0  0
    5.0013   -9.0750    0.0000 C   0  0  0  0  0  0  0  0  0  0  0  0
    5.7158   -8.6625    0.0000 C   0  0  0  0  0  0  0  0  0  0  0  0
    5.7158   -7.8375    0.0000 O   0  0  0  0  0  0  0  0  0  0  0  0
    6.4302   -9.0750    0.0000 O   0  0  0  0  0  0  0  0  0  0  0  0
    7.1447   -8.6625    0.0000 C   0  0  0  0  0  0  0  0  0  0  0  0
    7.8592   -9.0750    0.0000 C   0  0  0  0  0  0  0  0  0  0  0  0
    8.5737   -8.6625    0.0000 C   0  0  0  0  0  0  0  0  0  0  0  0
    9.2881   -9.0750    0.0000 C   0  0  0  0  0  0  0  0  0  0  0  0
   10.0026   -8.6625    0.0000 C   0  0  0  0  0  0  0  0  0  0  0  0
   10.7171   -9.0750    0.0000 C   0  0  0  0  0  0  0  0  0  0  0  0
   11.4315   -8.6625    0.0000 O   0  0  0  0  0  0  0  0  0  0  0  0
   12.1460   -9.0750    0.0000 C   0  0  0  0  0  0  0  0  0  0  0  0
   12.1460   -9.9000    0.0000 O   0  0  0  0  0  0  0  0  0  0  0  0
   12.8605   -8.6625    0.0000 C   0  0  0  0  0  0  0  0  0  0  0  0
   13.5750   -9.0750    0.0000 C   0  0  0  0  0  0  0  0  0  0  0  0
   14.2894   -8.6625    0.0000 C   0  0  0  0  0  0  0  0  0  0  0  0
   15.0039   -9.0750    0.0000 C   0  0  0  0  0  0  0  0  0  0  0  0
   15.7184   -8.6625    0.0000 C   0  0  0  0  0  0  0  0  0  0  0  0
   16.4328   -9.0750    0.0000 C   0  0  0  0  0  0  0  0  0  0  0  0
   17.1473   -9.4875    0.0000 C   0  0  0  0  0  0  0  0  0  0  0  0
   16.0203   -9.7895    0.0000 C   0  0  0  0  0  0  0  0  0  0  0  0
   16.8453   -8.3605    0.0000 C   0  0  0  0  0  0  0  0  0  0  0  0
   15.7184   -7.8375    0.0000 C   0  0  0  0  0  0  0  0  0  0  0  0
   16.4328   -7.4250    0.0000 O   0  0  0  0  0  0  0  0  0  0  0  0
   15.0039   -7.4250    0.0000 C   0  0  0  0  0  0  0  0  0  0  0  0
   15.0039   -6.6000    0.0000 C   0  0  0  0  0  0  0  0  0  0  0  0
   15.0039   -5.7750    0.0000 C   0  0  0  0  0  0  0  0  0  0  0  0
   14.1789   -6.6000    0.0000 C   0  0  0  0  0  0  0  0  0  0  0  0
   15.8289   -6.6000    0.0000 C   0  0  0  0  0  0  0  0  0  0  0  0
   14.2894   -7.8375    0.0000 C   0  0  0  0  0  0  0  0  0  0  0  0
    2.8579   -8.6625    0.0000 C   0  0  0  0  0  0  0  0  0  0  0  0
    2.1434   -9.0750    0.0000 C   0  0  0  0  0  0  0  0  0  0  0  0
    1.4290   -8.6625    0.0000 C   0  0  0  0  0  0  0  0  0  0  0  0
    0.7145   -8.2500    0.0000 C   0  0  0  0  0  0  0  0  0  0  0  0
    1.0165   -9.3770    0.0000 C   0  0  0  0  0  0  0  0  0  0  0  0
    1.8415   -7.9480    0.0000 C   0  0  0  0  0  0  0  0  0  0  0  0
    2.1434   -9.9000    0.0000 C   0  0  0  0  0  0  0  0  0  0  0  0
    1.4290  -10.3125    0.0000 O   0  0  0  0  0  0  0  0  0  0  0  0
  1  2  1  0  0  0  0
  2  3  1  0  0  0  0
  2  4  1  0  0  0  0
  2  5  1  0  0  0  0
  6  5  2  0  0  0  0
  7  6  1  0  0  0  0
  7  8  1  0  0  0  0
  8  9  1  0  0  0  0
  9 10  1  0  0  0  0
 10 11  2  0  0  0  0
 10 12  1  0  0  0  0
 12 13  1  0  0  0  0
 13 14  1  0  0  0  0
 14 15  1  0  0  0  0
 15 16  1  0  0  0  0
 16 17  1  0  0  0  0
 17 18  1  0  0  0  0
 18 19  1  0  0  0  0
 19 20  1  0  0  0  0
 20 21  2  0  0  0  0
 20 22  1  0  0  0  0
 22 23  1  0  0  0  0
 23 24  1  0  0  0  0
 25 24  2  0  0  0  0
 26 25  1  0  0  0  0
 26 27  1  0  0  0  0
 27 28  1  0  0  0  0
 27 29  1  0  0  0  0
 27 30  1  0  0  0  0
 31 26  2  0  0  0  0
 31 32  1  0  0  0  0
 33 31  1  0  0  0  0
 33 34  1  0  0  0  0
 34 35  1  0  0  0  0
 34 36  1  0  0  0  0
 34 37  1  0  0  0  0
 38 33  2  0  0  0  0
 24 38  1  0  0  0  0
 39  7  2  0  0  0  0
 40 39  1  0  0  0  0
 40 41  1  0  0  0  0
 41 42  1  0  0  0  0
 41 43  1  0  0  0  0
 41 44  1  0  0  0  0
 45 40  2  0  0  0  0
  5 45  1  0  0  0  0
 45 46  1  0  0  0  0
M  END
> <RowID>
1175

> <Original_SMILES>
CC(C)(C)C1=CC(CCC(=O)OCCCCCCOC(=O)CCC2=CC(=C(O)C(=C2)C(C)(C)C)C(C)(C)C)=CC(=C1O)C(C)(C)C

> <Canonical_QSARr>
CC(C)(C)C1=CC(CCC(=O)OCCCCCCOC(=O)CCC2=CC(=C(O)C(=C2)C(C)(C)C)C(C)(C)C)=CC(=C1O)C(C)(C)C

> <InChI_Code_QSARr>
InChI=1S/C40H62O6/c1-37(2,3)29-23-27(24-30(35(29)43)38(4,5)6)17-19-33(41)45-21-15-13-14-16-22-46-34(42)20-18-28-25-31(39(7,8)9)36(44)32(26-28)40(10,11)12/h23-26,43-44H,13-22H2,1-12H3

> <InChI Key_QSARr>
ZVVFVKJZNVSANF-UHFFFAOYSA-N

> <Salt_Solvent>


> <Salt_Solvent_ID>
0

> <Number of connected components>
1

$$$$
Molecule_1176
  Mrv2316 01072400032D          

 10 10  0  0  0  0            999 V2000
   -1.0717    1.0313    0.0000 N   0  0  0  0  0  0  0  0  0  0  0  0
   -0.3572    0.6188    0.0000 C   0  0  0  0  0  0  0  0  0  0  0  0
   -0.3572   -0.2063    0.0000 C   0  0  0  0  0  0  0  0  0  0  0  0
    0.3572   -0.6187    0.0000 C   0  0  0  0  0  0  0  0  0  0  0  0
    1.0717   -0.2062    0.0000 C   0  0  0  0  0  0  0  0  0  0  0  0
    1.0717    0.6188    0.0000 C   0  0  0  0  0  0  0  0  0  0  0  0
    0.3572    1.0313    0.0000 C   0  0  0  0  0  0  0  0  0  0  0  0
    0.3572    1.8563    0.0000 N   0  3  0  0  0  0  0  0  0  0  0  0
   -0.3572    2.2688    0.0000 O   0  5  0  0  0  0  0  0  0  0  0  0
    1.0717    2.2687    0.0000 O   0  0  0  0  0  0  0  0  0  0  0  0
  1  2  1  0  0  0  0
  3  2  2  0  0  0  0
  4  3  1  0  0  0  0
  5  4  2  0  0  0  0
  6  5  1  0  0  0  0
  7  6  2  0  0  0  0
  2  7  1  0  0  0  0
  7  8  1  0  0  0  0
  8  9  1  0  0  0  0
  8 10  2  0  0  0  0
M  CHG  2   8   1   9  -1
M  END
> <RowID>
1176

> <Original_SMILES>
NC1=CC=CC=C1[N+]([O-])=O

> <Canonical_QSARr>
NC1=CC=CC=C1[N+]([O-])=O

> <InChI_Code_QSARr>
InChI=1S/C6H6N2O2/c7-5-3-1-2-4-6(5)8(9)10/h1-4H,7H2

> <InChI Key_QSARr>
DPJCXCZTLWNFOH-UHFFFAOYSA-N

> <Salt_Solvent>


> <Salt_Solvent_ID>
0

> <Number of connected components>
1

$$$$
Molecule_1177
  Mrv2316 01072400032D          

 29 28  0  0  0  0            999 V2000
   14.1324    8.9850    0.0000 C   0  0  0  0  0  0  0  0  0  0  0  0
   14.8468    8.5725    0.0000 C   0  0  0  0  0  0  0  0  0  0  0  0
   15.5613    8.9850    0.0000 C   0  0  0  0  0  0  0  0  0  0  0  0
   16.2758    8.5725    0.0000 C   0  0  0  0  0  0  0  0  0  0  0  0
   16.9902    8.9850    0.0000 C   0  0  0  0  0  0  0  0  0  0  0  0
   17.7047    8.5725    0.0000 C   0  0  0  0  0  0  0  0  0  0  0  0
   18.4192    8.9850    0.0000 C   0  0  0  0  0  0  0  0  0  0  0  0
   19.1336    8.5725    0.0000 C   0  0  0  0  0  0  0  0  0  0  0  0
   19.8481    8.9850    0.0000 C   0  0  0  0  0  0  0  0  0  0  0  0
   20.5626    8.5725    0.0000 C   0  0  0  0  0  0  0  0  0  0  0  0
   21.2771    8.9850    0.0000 C   0  0  0  0  0  0  0  0  0  0  0  0
   21.9915    8.5725    0.0000 C   0  0  0  0  0  0  0  0  0  0  0  0
   22.7060    8.9850    0.0000 C   0  0  0  0  0  0  0  0  0  0  0  0
   23.4205    8.5725    0.0000 C   0  0  0  0  0  0  0  0  0  0  0  0
   24.1349    8.9850    0.0000 C   0  0  0  0  0  0  0  0  0  0  0  0
   24.1349    9.8100    0.0000 C   0  0  0  0  0  0  0  0  0  0  0  0
   24.8494   10.2225    0.0000 O   0  0  0  0  0  0  0  0  0  0  0  0
   24.8494    8.5725    0.0000 C   0  0  0  0  0  0  0  0  0  0  0  0
   25.5639    8.9850    0.0000 C   0  0  0  0  0  0  0  0  0  0  0  0
   26.2784    8.5725    0.0000 C   0  0  0  0  0  0  0  0  0  0  0  0
   26.9928    8.9850    0.0000 C   0  0  0  0  0  0  0  0  0  0  0  0
   27.7073    8.5725    0.0000 C   0  0  0  0  0  0  0  0  0  0  0  0
   28.4218    8.9850    0.0000 C   0  0  0  0  0  0  0  0  0  0  0  0
   29.1362    8.5725    0.0000 C   0  0  0  0  0  0  0  0  0  0  0  0
   29.8507    8.9850    0.0000 C   0  0  0  0  0  0  0  0  0  0  0  0
   30.5652    8.5725    0.0000 C   0  0  0  0  0  0  0  0  0  0  0  0
   31.2797    8.9850    0.0000 C   0  0  0  0  0  0  0  0  0  0  0  0
   31.9941    8.5725    0.0000 C   0  0  0  0  0  0  0  0  0  0  0  0
   32.7086    8.9850    0.0000 C   0  0  0  0  0  0  0  0  0  0  0  0
  1  2  1  0  0  0  0
  2  3  1  0  0  0  0
  3  4  1  0  0  0  0
  4  5  1  0  0  0  0
  5  6  1  0  0  0  0
  6  7  1  0  0  0  0
  7  8  1  0  0  0  0
  8  9  1  0  0  0  0
  9 10  1  0  0  0  0
 10 11  1  0  0  0  0
 11 12  1  0  0  0  0
 12 13  1  0  0  0  0
 13 14  1  0  0  0  0
 14 15  1  0  0  0  0
 15 16  1  0  0  0  0
 16 17  1  0  0  0  0
 15 18  1  0  0  0  0
 18 19  1  0  0  0  0
 19 20  1  0  0  0  0
 20 21  1  0  0  0  0
 21 22  1  0  0  0  0
 22 23  1  0  0  0  0
 23 24  1  0  0  0  0
 24 25  1  0  0  0  0
 25 26  1  0  0  0  0
 26 27  1  0  0  0  0
 27 28  1  0  0  0  0
 28 29  1  0  0  0  0
M  END
> <RowID>
1177

> <Original_SMILES>
CCCCCCCCCCCCCCC(CO)CCCCCCCCCCCC

> <Canonical_QSARr>
CCCCCCCCCCCCCCC(CO)CCCCCCCCCCCC

> <InChI_Code_QSARr>
InChI=1S/C28H58O/c1-3-5-7-9-11-13-15-16-18-20-22-24-26-28(27-29)25-23-21-19-17-14-12-10-8-6-4-2/h28-29H,3-27H2,1-2H3

> <InChI Key_QSARr>
DEMBLPGWNXUBIQ-UHFFFAOYSA-N

> <Salt_Solvent>


> <Salt_Solvent_ID>
0

> <Number of connected components>
1

$$$$
Molecule_1178
  Mrv2316 01072400032D          

 11 11  0  0  0  0            999 V2000
    2.5981   -1.2000    0.0000 C   0  0  0  0  0  0  0  0  0  0  0  0
    1.8836   -0.7875    0.0000 C   0  0  0  0  0  0  0  0  0  0  0  0
    1.8836    0.0375    0.0000 C   0  0  0  0  0  0  0  0  0  0  0  0
    1.1691    0.4500    0.0000 C   0  0  0  0  0  0  0  0  0  0  0  0
    1.1691    1.2750    0.0000 N   0  3  0  0  0  0  0  0  0  0  0  0
    0.4547    1.6875    0.0000 O   0  5  0  0  0  0  0  0  0  0  0  0
    1.8836    1.6875    0.0000 O   0  0  0  0  0  0  0  0  0  0  0  0
    0.4547    0.0375    0.0000 C   0  0  0  0  0  0  0  0  0  0  0  0
   -0.2598    0.4500    0.0000 C   0  0  0  0  0  0  0  0  0  0  0  0
    0.4547   -0.7875    0.0000 C   0  0  0  0  0  0  0  0  0  0  0  0
    1.1691   -1.2000    0.0000 C   0  0  0  0  0  0  0  0  0  0  0  0
  1  2  1  0  0  0  0
  3  2  2  0  0  0  0
  4  3  1  0  0  0  0
  4  5  1  0  0  0  0
  5  6  1  0  0  0  0
  5  7  2  0  0  0  0
  8  4  2  0  0  0  0
  8  9  1  0  0  0  0
 10  8  1  0  0  0  0
 11 10  2  0  0  0  0
  2 11  1  0  0  0  0
M  CHG  2   5   1   6  -1
M  END
> <RowID>
1178

> <Original_SMILES>
CC1=CC(=C(C)C=C1)[N+]([O-])=O

> <Canonical_QSARr>
CC1=CC(=C(C)C=C1)[N+]([O-])=O

> <InChI_Code_QSARr>
InChI=1S/C8H9NO2/c1-6-3-4-7(2)8(5-6)9(10)11/h3-5H,1-2H3

> <InChI Key_QSARr>
BSFHJMGROOFSRA-UHFFFAOYSA-N

> <Salt_Solvent>


> <Salt_Solvent_ID>
0

> <Number of connected components>
1

$$$$
Molecule_1180
  Mrv2316 01072400032D          

  9  8  0  0  0  0            999 V2000
    0.8250   -0.8250    0.0000 C   0  0  0  0  0  0  0  0  0  0  0  0
    0.8250    0.0000    0.0000 N   0  3  0  0  0  0  0  0  0  0  0  0
    0.8250    0.8250    0.0000 C   0  0  0  0  0  0  0  0  0  0  0  0
    0.1105    1.2375    0.0000 C   0  0  0  0  0  0  0  0  0  0  0  0
    0.1105    2.0625    0.0000 C   0  0  0  0  0  0  0  0  0  0  0  0
   -0.6039    2.4750    0.0000 Cl  0  0  0  0  0  0  0  0  0  0  0  0
   -0.6039    0.8250    0.0000 O   0  0  0  0  0  0  0  0  0  0  0  0
    1.6500   -0.0000    0.0000 C   0  0  0  0  0  0  0  0  0  0  0  0
    0.0000    0.0000    0.0000 C   0  0  0  0  0  0  0  0  0  0  0  0
  1  2  1  0  0  0  0
  2  3  1  0  0  0  0
  3  4  1  0  0  0  0
  4  5  1  0  0  0  0
  5  6  1  0  0  0  0
  4  7  1  0  0  0  0
  2  8  1  0  0  0  0
  2  9  1  0  0  0  0
M  CHG  1   2   1
M  END
> <RowID>
1180

> <Original_SMILES>
[Cl-].C[N+](C)(C)CC(O)CCl

> <Canonical_QSARr>
C[N+](C)(C)CC(O)CCl

> <InChI_Code_QSARr>
InChI=1S/C6H15ClNO/c1-8(2,3)5-6(9)4-7/h6,9H,4-5H2,1-3H3/q+1

> <InChI Key_QSARr>
XIUCEANTZSXBQQ-UHFFFAOYSA-N

> <Salt_Solvent>
[Cl-]

> <Salt_Solvent_ID>
170

> <Number of connected components>
2

$$$$
Molecule_1181
  Mrv2316 01072400032D          

  8  8  0  0  0  0            999 V2000
   -0.3106   -1.3137    0.0000 C   0  0  0  0  0  0  0  0  0  0  0  0
    0.1743   -0.6463    0.0000 N   0  3  0  0  0  0  0  0  0  0  0  0
    0.9993   -0.6463    0.0000 C   0  0  0  0  0  0  0  0  0  0  0  0
    1.2543    0.1383    0.0000 C   0  0  0  0  0  0  0  0  0  0  0  0
    0.5868    0.6233    0.0000 N   0  0  0  0  0  0  0  0  0  0  0  0
    0.5868    1.4483    0.0000 C   0  0  0  0  0  0  0  0  0  0  0  0
   -0.1276    1.8608    0.0000 C   0  0  0  0  0  0  0  0  0  0  0  0
   -0.0806    0.1383    0.0000 C   0  0  0  0  0  0  0  0  0  0  0  0
  1  2  1  0  0  0  0
  3  2  1  0  0  0  0
  4  3  2  0  0  0  0
  5  4  1  0  0  0  0
  5  6  1  0  0  0  0
  6  7  2  0  0  0  0
  8  5  1  0  0  0  0
  2  8  2  0  0  0  0
M  CHG  1   2   1
M  END
> <RowID>
1181

> <Original_SMILES>
[Cl-].C[N+]1=CN(C=C)C=C1

> <Canonical_QSARr>
C[N+]1=CN(C=C)C=C1

> <InChI_Code_QSARr>
InChI=1S/C6H9N2/c1-3-8-5-4-7(2)6-8/h3-6H,1H2,2H3/q+1

> <InChI Key_QSARr>
VPNMTSAIINVZTK-UHFFFAOYSA-N

> <Salt_Solvent>
[Cl-]

> <Salt_Solvent_ID>
170

> <Number of connected components>
2

$$$$
Molecule_1182
  Mrv2316 01072400032D          

 25 24  0  0  0  0            999 V2000
   -2.1434   -7.7783    0.0000 C   0  0  0  0  0  0  0  0  0  0  0  0
   -1.4290   -8.1908    0.0000 C   0  0  0  0  0  0  0  0  0  0  0  0
   -0.7145   -7.7783    0.0000 C   0  0  0  0  0  0  0  0  0  0  0  0
   -0.0000   -8.1908    0.0000 C   0  0  0  0  0  0  0  0  0  0  0  0
    0.7145   -7.7783    0.0000 N   0  0  0  0  0  0  0  0  0  0  0  0
    0.7145   -6.9533    0.0000 C   0  0  0  0  0  0  0  0  0  0  0  0
   -0.0000   -6.5408    0.0000 C   0  0  0  0  0  0  0  0  0  0  0  0
   -0.0000   -5.7158    0.0000 C   0  0  0  0  0  0  0  0  0  0  0  0
   -0.7145   -5.3033    0.0000 C   0  0  0  0  0  0  0  0  0  0  0  0
    1.4289   -8.1908    0.0000 C   0  0  0  0  0  0  0  0  0  0  0  0
    1.4289   -9.0158    0.0000 S   0  0  0  0  0  0  0  0  0  0  0  0
    2.1434   -7.7783    0.0000 S   0  0  0  0  0  0  0  0  0  0  0  0
    2.8579   -8.1908    0.0000 C   0  0  0  0  0  0  0  0  0  0  0  0
    3.5723   -7.7783    0.0000 S   0  0  0  0  0  0  0  0  0  0  0  0
    4.2868   -8.1908    0.0000 C   0  0  0  0  0  0  0  0  0  0  0  0
    4.2868   -9.0158    0.0000 S   0  0  0  0  0  0  0  0  0  0  0  0
    5.0013   -7.7783    0.0000 N   0  0  0  0  0  0  0  0  0  0  0  0
    5.7158   -8.1908    0.0000 C   0  0  0  0  0  0  0  0  0  0  0  0
    6.4302   -7.7783    0.0000 C   0  0  0  0  0  0  0  0  0  0  0  0
    7.1447   -8.1908    0.0000 C   0  0  0  0  0  0  0  0  0  0  0  0
    7.8592   -7.7783    0.0000 C   0  0  0  0  0  0  0  0  0  0  0  0
    5.0013   -6.9533    0.0000 C   0  0  0  0  0  0  0  0  0  0  0  0
    5.7158   -6.5408    0.0000 C   0  0  0  0  0  0  0  0  0  0  0  0
    5.7158   -5.7158    0.0000 C   0  0  0  0  0  0  0  0  0  0  0  0
    6.4302   -5.3033    0.0000 C   0  0  0  0  0  0  0  0  0  0  0  0
  1  2  1  0  0  0  0
  2  3  1  0  0  0  0
  3  4  1  0  0  0  0
  4  5  1  0  0  0  0
  5  6  1  0  0  0  0
  6  7  1  0  0  0  0
  7  8  1  0  0  0  0
  8  9  1  0  0  0  0
  5 10  1  0  0  0  0
 10 11  2  0  0  0  0
 10 12  1  0  0  0  0
 12 13  1  0  0  0  0
 13 14  1  0  0  0  0
 14 15  1  0  0  0  0
 15 16  2  0  0  0  0
 15 17  1  0  0  0  0
 17 18  1  0  0  0  0
 18 19  1  0  0  0  0
 19 20  1  0  0  0  0
 20 21  1  0  0  0  0
 17 22  1  0  0  0  0
 22 23  1  0  0  0  0
 23 24  1  0  0  0  0
 24 25  1  0  0  0  0
M  END
> <RowID>
1182

> <Original_SMILES>
CCCCN(CCCC)C(=S)SCSC(=S)N(CCCC)CCCC

> <Canonical_QSARr>
CCCCN(CCCC)C(=S)SCSC(=S)N(CCCC)CCCC

> <InChI_Code_QSARr>
InChI=1S/C19H38N2S4/c1-5-9-13-20(14-10-6-2)18(22)24-17-25-19(23)21(15-11-7-3)16-12-8-4/h5-17H2,1-4H3

> <InChI Key_QSARr>
LMODBLQHQHXPEI-UHFFFAOYSA-N

> <Salt_Solvent>


> <Salt_Solvent_ID>
0

> <Number of connected components>
1

$$$$
Molecule_1183
  Mrv2316 01072400032D          

 28 27  0  0  0  0            999 V2000
    5.9961    4.2868    0.0000 C   0  0  0  0  0  0  0  0  0  0  0  0
    6.7105    4.6993    0.0000 C   0  0  0  0  0  0  0  0  0  0  0  0
    7.4250    4.2868    0.0000 C   0  0  0  0  0  0  0  0  0  0  0  0
    8.1395    4.6993    0.0000 C   0  0  0  0  0  0  0  0  0  0  0  0
    8.8540    4.2868    0.0000 C   0  0  0  0  0  0  0  0  0  0  0  0
    9.5684    4.6993    0.0000 C   0  0  0  0  0  0  0  0  0  0  0  0
   10.2829    4.2868    0.0000 O   0  0  0  0  0  0  0  0  0  0  0  0
   10.9974    4.6993    0.0000 C   0  0  0  0  0  0  0  0  0  0  0  0
   10.9974    5.5243    0.0000 O   0  0  0  0  0  0  0  0  0  0  0  0
   11.7118    4.2868    0.0000 C   0  0  0  0  0  0  0  0  0  0  0  0
   12.4263    4.6993    0.0000 C   0  0  0  0  0  0  0  0  0  0  0  0
   13.1408    4.2868    0.0000 C   0  0  0  0  0  0  0  0  0  0  0  0
   13.8553    4.6993    0.0000 C   0  0  0  0  0  0  0  0  0  0  0  0
   14.5697    4.2868    0.0000 C   0  0  0  0  0  0  0  0  0  0  0  0
   15.2842    4.6993    0.0000 C   0  0  0  0  0  0  0  0  0  0  0  0
   15.9987    4.2868    0.0000 C   0  0  0  0  0  0  0  0  0  0  0  0
   16.7131    4.6993    0.0000 C   0  0  0  0  0  0  0  0  0  0  0  0
   17.4276    4.2868    0.0000 C   0  0  0  0  0  0  0  0  0  0  0  0
   18.1421    4.6993    0.0000 C   0  0  0  0  0  0  0  0  0  0  0  0
   18.1421    5.5243    0.0000 C   0  0  0  0  0  0  0  0  0  0  0  0
   18.8566    5.9368    0.0000 C   0  0  0  0  0  0  0  0  0  0  0  0
   18.8566    6.7618    0.0000 C   0  0  0  0  0  0  0  0  0  0  0  0
   19.5710    7.1743    0.0000 C   0  0  0  0  0  0  0  0  0  0  0  0
   19.5710    7.9993    0.0000 C   0  0  0  0  0  0  0  0  0  0  0  0
   20.2855    8.4118    0.0000 C   0  0  0  0  0  0  0  0  0  0  0  0
   20.2855    9.2368    0.0000 C   0  0  0  0  0  0  0  0  0  0  0  0
    8.8540    3.4618    0.0000 C   0  0  0  0  0  0  0  0  0  0  0  0
    9.5684    3.0493    0.0000 C   0  0  0  0  0  0  0  0  0  0  0  0
  1  2  1  0  0  0  0
  2  3  1  0  0  0  0
  3  4  1  0  0  0  0
  4  5  1  0  0  0  0
  5  6  1  0  0  0  0
  6  7  1  0  0  0  0
  7  8  1  0  0  0  0
  8  9  2  0  0  0  0
  8 10  1  0  0  0  0
 10 11  1  0  0  0  0
 11 12  1  0  0  0  0
 12 13  1  0  0  0  0
 13 14  1  0  0  0  0
 14 15  1  0  0  0  0
 15 16  1  0  0  0  0
 17 16  1  4  0  0  0
 17 18  2  0  0  0  0
 18 19  1  0  0  0  0
 19 20  1  0  0  0  0
 20 21  1  0  0  0  0
 21 22  1  0  0  0  0
 22 23  1  0  0  0  0
 23 24  1  0  0  0  0
 24 25  1  0  0  0  0
 25 26  1  0  0  0  0
  5 27  1  0  0  0  0
 27 28  1  0  0  0  0
M  END
> <RowID>
1183

> <Original_SMILES>
CCCCC(COC(=O)CCCCCCCC=CCCCCCCCC)CC

> <Canonical_QSARr>
CCCCC(COC(=O)CCCCCCCC=CCCCCCCCC)CC

> <InChI_Code_QSARr>
InChI=1S/C26H50O2/c1-4-7-9-10-11-12-13-14-15-16-17-18-19-20-21-23-26(27)28-24-25(6-3)22-8-5-2/h14-15,25H,4-13,16-24H2,1-3H3

> <InChI Key_QSARr>
FOKDITTZHHDEHD-UHFFFAOYSA-N

> <Salt_Solvent>


> <Salt_Solvent_ID>
0

> <Number of connected components>
1

$$$$
Molecule_1184
  Mrv2316 01072400032D          

 20 23  0  0  0  0            999 V2000
   -1.6834    0.7541    0.0000 O   0  0  0  0  0  0  0  0  0  0  0  0
   -1.9383   -0.0305    0.0000 C   0  0  0  0  0  0  0  0  0  0  0  0
   -2.7230   -0.2854    0.0000 C   0  0  0  0  0  0  0  0  0  0  0  0
   -2.7230   -1.1104    0.0000 C   0  0  0  0  0  0  0  0  0  0  0  0
   -3.4374   -1.5229    0.0000 C   0  0  0  0  0  0  0  0  0  0  0  0
   -4.1519   -1.1104    0.0000 C   0  0  0  0  0  0  0  0  0  0  0  0
   -4.1519   -0.2854    0.0000 C   0  0  0  0  0  0  0  0  0  0  0  0
   -3.4374    0.1271    0.0000 C   0  0  0  0  0  0  0  0  0  0  0  0
   -1.9383   -1.3654    0.0000 N   0  0  0  0  0  0  0  0  0  0  0  0
   -1.4534   -0.6979    0.0000 C   0  0  0  0  0  0  0  0  0  0  0  0
   -0.6284   -0.6979    0.0000 C   0  0  0  0  0  0  0  0  0  0  0  0
   -0.1435   -1.3654    0.0000 C   0  0  0  0  0  0  0  0  0  0  0  0
   -0.3984   -2.1500    0.0000 O   0  0  0  0  0  0  0  0  0  0  0  0
    0.6411   -1.1104    0.0000 C   0  0  0  0  0  0  0  0  0  0  0  0
    0.6411   -0.2854    0.0000 C   0  0  0  0  0  0  0  0  0  0  0  0
    1.3556    0.1271    0.0000 C   0  0  0  0  0  0  0  0  0  0  0  0
    2.0701   -0.2854    0.0000 C   0  0  0  0  0  0  0  0  0  0  0  0
    2.0701   -1.1104    0.0000 C   0  0  0  0  0  0  0  0  0  0  0  0
    1.3556   -1.5229    0.0000 C   0  0  0  0  0  0  0  0  0  0  0  0
   -0.1435   -0.0305    0.0000 N   0  0  0  0  0  0  0  0  0  0  0  0
  1  2  1  0  0  0  0
  3  2  1  0  0  0  0
  3  4  2  0  0  0  0
  4  5  1  0  0  0  0
  5  6  2  0  0  0  0
  6  7  1  0  0  0  0
  7  8  2  0  0  0  0
  8  3  1  0  0  0  0
  9  4  1  0  0  0  0
 10  9  1  0  0  0  0
  2 10  2  0  0  0  0
 10 11  1  0  0  0  0
 12 11  2  0  0  0  0
 12 13  1  0  0  0  0
 14 12  1  0  0  0  0
 14 15  2  0  0  0  0
 15 16  1  0  0  0  0
 16 17  2  0  0  0  0
 17 18  1  0  0  0  0
 18 19  2  0  0  0  0
 19 14  1  0  0  0  0
 20 15  1  0  0  0  0
 11 20  1  0  0  0  0
M  END
> <RowID>
1184

> <Original_SMILES>
[K+].[K+].[O-]C1=C(NC2=CC=CC=C12)C1NC2=CC=CC=C2C=1[O-]

> <Canonical_QSARr>
OC1=C(NC2C=CC=CC1=2)C1NC2C=CC=CC=2C=1O

> <InChI_Code_QSARr>
InChI=1S/C16H12N2O2/c19-15-9-5-1-3-7-11(9)17-13(15)14-16(20)10-6-2-4-8-12(10)18-14/h1-8,17-20H

> <InChI Key_QSARr>
VIFKLIUAPGUEBV-UHFFFAOYSA-N

> <Salt_Solvent>
[K+]

> <Salt_Solvent_ID>
190

> <Number of connected components>
3

$$$$
Molecule_1185
  Mrv2316 01072400032D          

 21 21  0  0  0  0            999 V2000
   -2.8579   -0.8250    0.0000 C   0  0  0  0  0  0  0  0  0  0  0  0
   -2.8579    0.0000    0.0000 C   0  0  0  0  0  0  0  0  0  0  0  0
   -2.0329    0.0000    0.0000 C   0  0  0  0  0  0  0  0  0  0  0  0
   -3.6829    0.0000    0.0000 C   0  0  0  0  0  0  0  0  0  0  0  0
   -2.8579    0.8250    0.0000 C   0  0  0  0  0  0  0  0  0  0  0  0
   -2.1434    1.2375    0.0000 C   0  0  0  0  0  0  0  0  0  0  0  0
   -2.1434    2.0625    0.0000 C   0  0  0  0  0  0  0  0  0  0  0  0
   -1.4289    2.4750    0.0000 C   0  0  0  0  0  0  0  0  0  0  0  0
   -0.7145    2.0625    0.0000 C   0  0  0  0  0  0  0  0  0  0  0  0
   -0.0000    2.4750    0.0000 C   0  0  0  0  0  0  0  0  0  0  0  0
   -0.0000    3.3000    0.0000 O   0  0  0  0  0  0  0  0  0  0  0  0
    0.7145    2.0625    0.0000 O   0  0  0  0  0  0  0  0  0  0  0  0
    1.4289    2.4750    0.0000 C   0  0  0  0  0  0  0  0  0  0  0  0
   -2.8579    2.4750    0.0000 C   0  0  0  0  0  0  0  0  0  0  0  0
   -3.5724    2.0625    0.0000 C   0  0  0  0  0  0  0  0  0  0  0  0
   -4.2868    2.4750    0.0000 C   0  0  0  0  0  0  0  0  0  0  0  0
   -5.0013    2.8875    0.0000 C   0  0  0  0  0  0  0  0  0  0  0  0
   -4.6993    1.7605    0.0000 C   0  0  0  0  0  0  0  0  0  0  0  0
   -3.8743    3.1895    0.0000 C   0  0  0  0  0  0  0  0  0  0  0  0
   -3.5724    1.2375    0.0000 C   0  0  0  0  0  0  0  0  0  0  0  0
   -4.2868    0.8250    0.0000 O   0  0  0  0  0  0  0  0  0  0  0  0
  1  2  1  0  0  0  0
  2  3  1  0  0  0  0
  2  4  1  0  0  0  0
  2  5  1  0  0  0  0
  6  5  1  0  0  0  0
  7  6  2  0  0  0  0
  7  8  1  0  0  0  0
  8  9  1  0  0  0  0
  9 10  1  0  0  0  0
 10 11  2  0  0  0  0
 10 12  1  0  0  0  0
 12 13  1  0  0  0  0
 14  7  1  0  0  0  0
 15 14  2  0  0  0  0
 15 16  1  0  0  0  0
 16 17  1  0  0  0  0
 16 18  1  0  0  0  0
 16 19  1  0  0  0  0
 20 15  1  0  0  0  0
  5 20  2  0  0  0  0
 20 21  1  0  0  0  0
M  END
> <RowID>
1185

> <Original_SMILES>
CC(C)(C)C1C=C(CCC(=O)OC)C=C(C=1O)C(C)(C)C

> <Canonical_QSARr>
CC(C)(C)C1C=C(CCC(=O)OC)C=C(C=1O)C(C)(C)C

> <InChI_Code_QSARr>
InChI=1S/C18H28O3/c1-17(2,3)13-10-12(8-9-15(19)21-7)11-14(16(13)20)18(4,5)6/h10-11,20H,8-9H2,1-7H3

> <InChI Key_QSARr>
PXMJCECEFTYEKE-UHFFFAOYSA-N

> <Salt_Solvent>


> <Salt_Solvent_ID>
0

> <Number of connected components>
1

$$$$
Molecule_1186
  Mrv2316 01072400032D          

 14 15  0  0  0  0            999 V2000
    2.3307    1.7919    0.0000 O   0  0  0  0  0  0  0  0  0  0  0  0
    1.8458    2.4593    0.0000 C   0  0  0  0  0  0  0  0  0  0  0  0
    2.1813    3.2130    0.0000 C   0  0  0  0  0  0  0  0  0  0  0  0
    1.6964    3.8804    0.0000 C   0  0  0  0  0  0  0  0  0  0  0  0
    0.8759    3.7942    0.0000 C   0  0  0  0  0  0  0  0  0  0  0  0
    0.3910    4.4616    0.0000 C   0  0  0  0  0  0  0  0  0  0  0  0
    0.6460    5.2462    0.0000 N   0  0  0  0  0  0  0  0  0  0  0  0
   -0.0215    5.7312    0.0000 C   0  0  0  0  0  0  0  0  0  0  0  0
   -0.0215    6.5562    0.0000 O   0  0  0  0  0  0  0  0  0  0  0  0
   -0.6889    5.2462    0.0000 N   0  0  0  0  0  0  0  0  0  0  0  0
   -0.4340    4.4616    0.0000 C   0  0  0  0  0  0  0  0  0  0  0  0
   -0.9189    3.7942    0.0000 O   0  0  0  0  0  0  0  0  0  0  0  0
    0.5404    3.0405    0.0000 C   0  0  0  0  0  0  0  0  0  0  0  0
    1.0253    2.3731    0.0000 C   0  0  0  0  0  0  0  0  0  0  0  0
  1  2  1  0  0  0  0
  3  2  1  0  0  0  0
  4  3  2  0  0  0  0
  5  4  1  0  0  0  0
  5  6  1  0  0  0  0
  7  6  1  0  0  0  0
  8  7  1  0  0  0  0
  8  9  2  0  0  0  0
 10  8  1  0  0  0  0
 11 10  1  0  0  0  0
  6 11  1  0  0  0  0
 11 12  2  0  0  0  0
 13  5  2  0  0  0  0
 14 13  1  0  0  0  0
  2 14  2  0  0  0  0
M  END
> <RowID>
1186

> <Original_SMILES>
OC1C=CC(=CC=1)C1NC(=O)NC1=O

> <Canonical_QSARr>
OC1C=CC(=CC=1)C1NC(=O)NC1=O

> <InChI_Code_QSARr>
InChI=1S/C9H8N2O3/c12-6-3-1-5(2-4-6)7-8(13)11-9(14)10-7/h1-4,7,12H,(H2,10,11,13,14)

> <InChI Key_QSARr>
UMTNMIARZPDSDI-UHFFFAOYSA-N

> <Salt_Solvent>


> <Salt_Solvent_ID>
0

> <Number of connected components>
1

$$$$
Molecule_1187
  Mrv2316 01072400032D          

 37 40  0  0  0  0            999 V2000
    3.4990    5.3023    0.0000 C   0  0  0  0  0  0  0  0  0  0  0  0
    4.2135    4.8898    0.0000 C   0  0  0  0  0  0  0  0  0  0  0  0
    4.9280    5.3023    0.0000 O   0  0  0  0  0  0  0  0  0  0  0  0
    4.2135    4.0648    0.0000 C   0  0  0  0  0  0  0  0  0  0  0  0
    4.9280    3.6523    0.0000 N   0  0  0  0  0  0  0  0  0  0  0  0
    4.9280    2.8273    0.0000 N   0  0  0  0  0  0  0  0  0  0  0  0
    5.6424    2.4148    0.0000 C   0  0  0  0  0  0  0  0  0  0  0  0
    5.6424    1.5898    0.0000 C   0  0  0  0  0  0  0  0  0  0  0  0
    6.3569    1.1773    0.0000 C   0  0  0  0  0  0  0  0  0  0  0  0
    7.0714    1.5898    0.0000 C   0  0  0  0  0  0  0  0  0  0  0  0
    7.7859    1.1773    0.0000 C   0  0  0  0  0  0  0  0  0  0  0  0
    7.7859    0.3523    0.0000 O   0  0  0  0  0  0  0  0  0  0  0  0
    8.5003    1.5898    0.0000 N   0  0  0  0  0  0  0  0  0  0  0  0
    9.2148    1.1773    0.0000 C   0  0  0  0  0  0  0  0  0  0  0  0
    9.2148    0.3523    0.0000 C   0  0  0  0  0  0  0  0  0  0  0  0
    9.9293   -0.0602    0.0000 C   0  0  0  0  0  0  0  0  0  0  0  0
   10.6437    0.3523    0.0000 C   0  0  0  0  0  0  0  0  0  0  0  0
   11.3582   -0.0602    0.0000 C   0  0  0  0  0  0  0  0  0  0  0  0
   12.0727    0.3523    0.0000 N   0  0  0  0  0  0  0  0  0  0  0  0
   11.3582   -0.8852    0.0000 O   0  0  0  0  0  0  0  0  0  0  0  0
   10.6437    1.1773    0.0000 C   0  0  0  0  0  0  0  0  0  0  0  0
    9.9293    1.5898    0.0000 C   0  0  0  0  0  0  0  0  0  0  0  0
    7.0714    2.4148    0.0000 C   0  0  0  0  0  0  0  0  0  0  0  0
    6.3569    2.8273    0.0000 C   0  0  0  0  0  0  0  0  0  0  0  0
    3.4990    3.6523    0.0000 C   0  0  0  0  0  0  0  0  0  0  0  0
    3.4990    2.8273    0.0000 O   0  0  0  0  0  0  0  0  0  0  0  0
    2.7846    4.0648    0.0000 N   0  0  0  0  0  0  0  0  0  0  0  0
    2.0701    3.6523    0.0000 C   0  0  0  0  0  0  0  0  0  0  0  0
    1.3556    4.0648    0.0000 C   0  0  0  0  0  0  0  0  0  0  0  0
    0.6411    3.6523    0.0000 C   0  0  0  0  0  0  0  0  0  0  0  0
   -0.1435    3.9072    0.0000 N   0  0  0  0  0  0  0  0  0  0  0  0
   -0.6284    3.2398    0.0000 C   0  0  0  0  0  0  0  0  0  0  0  0
   -1.4534    3.2398    0.0000 O   0  0  0  0  0  0  0  0  0  0  0  0
   -0.1435    2.5724    0.0000 N   0  0  0  0  0  0  0  0  0  0  0  0
    0.6411    2.8273    0.0000 C   0  0  0  0  0  0  0  0  0  0  0  0
    1.3556    2.4148    0.0000 C   0  0  0  0  0  0  0  0  0  0  0  0
    2.0701    2.8273    0.0000 C   0  0  0  0  0  0  0  0  0  0  0  0
  1  2  1  0  0  0  0
  2  3  2  0  0  0  0
  2  4  1  0  0  0  0
  5  4  1  4  0  0  0
  5  6  2  0  0  0  0
  6  7  1  0  0  0  0
  8  7  1  0  0  0  0
  9  8  2  0  0  0  0
 10  9  1  0  0  0  0
 10 11  1  0  0  0  0
 11 12  2  0  0  0  0
 11 13  1  0  0  0  0
 13 14  1  0  0  0  0
 15 14  1  0  0  0  0
 16 15  2  0  0  0  0
 17 16  1  0  0  0  0
 17 18  1  0  0  0  0
 18 19  1  0  0  0  0
 18 20  2  0  0  0  0
 21 17  2  0  0  0  0
 22 21  1  0  0  0  0
 14 22  2  0  0  0  0
 23 10  2  0  0  0  0
 24 23  1  0  0  0  0
  7 24  2  0  0  0  0
  4 25  1  0  0  0  0
 25 26  2  0  0  0  0
 25 27  1  0  0  0  0
 27 28  1  0  0  0  0
 29 28  2  0  0  0  0
 30 29  1  0  0  0  0
 30 31  1  0  0  0  0
 31 32  1  0  0  0  0
 32 33  2  0  0  0  0
 32 34  1  0  0  0  0
 34 35  1  0  0  0  0
 35 30  2  0  0  0  0
 36 35  1  0  0  0  0
 37 36  2  0  0  0  0
 28 37  1  0  0  0  0
M  END
> <RowID>
1187

> <Original_SMILES>
CC(=O)C(N=NC1C=CC(=CC=1)C(=O)NC1C=CC(=CC=1)C(N)=O)C(=O)NC1=CC2NC(=O)NC=2C=C1

> <Canonical_QSARr>
CC(=O)C(N=NC1C=CC(=CC=1)C(=O)NC1C=CC(=CC=1)C(N)=O)C(=O)NC1=CC2NC(=O)NC=2C=C1

> <InChI_Code_QSARr>
InChI=1S/C25H21N7O5/c1-13(33)21(24(36)28-18-10-11-19-20(12-18)30-25(37)29-19)32-31-17-8-4-15(5-9-17)23(35)27-16-6-2-14(3-7-16)22(26)34/h2-12,21H,1H3,(H2,26,34)(H,27,35)(H,28,36)(H2,29,30,37)

> <InChI Key_QSARr>
PXMLTVJEYHGPEH-UHFFFAOYSA-N

> <Salt_Solvent>


> <Salt_Solvent_ID>
0

> <Number of connected components>
1

$$$$
Molecule_1189
  Mrv2316 01072400032D          

 29 31  0  0  0  0            999 V2000
    2.8579   -0.0000    0.0000 C   0  0  0  0  0  0  0  0  0  0  0  0
    3.5724    0.4125    0.0000 C   0  0  0  0  0  0  0  0  0  0  0  0
    4.2868   -0.0000    0.0000 C   0  0  0  0  0  0  0  0  0  0  0  0
    4.2868   -0.8250    0.0000 C   0  0  0  0  0  0  0  0  0  0  0  0
    5.0013    0.4125    0.0000 C   0  0  0  0  0  0  0  0  0  0  0  0
    5.0013    1.2375    0.0000 O   0  0  0  0  0  0  0  0  0  0  0  0
    5.7158   -0.0000    0.0000 O   0  0  0  0  0  0  0  0  0  0  0  0
    6.4302    0.4125    0.0000 C   0  0  0  0  0  0  0  0  0  0  0  0
    6.4302    1.2375    0.0000 C   0  0  0  0  0  0  0  0  0  0  0  0
    7.1447    1.6500    0.0000 C   0  0  0  0  0  0  0  0  0  0  0  0
    7.1447    2.4750    0.0000 C   0  0  0  0  0  0  0  0  0  0  0  0
    7.8592    1.2375    0.0000 C   0  0  0  0  0  0  0  0  0  0  0  0
    7.8592    0.4125    0.0000 C   0  0  0  0  0  0  0  0  0  0  0  0
    8.5737   -0.0000    0.0000 C   0  0  0  0  0  0  0  0  0  0  0  0
    8.5737   -0.8250    0.0000 C   0  0  0  0  0  0  0  0  0  0  0  0
    7.8592   -1.2375    0.0000 C   0  0  0  0  0  0  0  0  0  0  0  0
    7.8592   -2.0625    0.0000 C   0  0  0  0  0  0  0  0  0  0  0  0
    7.1447   -0.8250    0.0000 C   0  0  0  0  0  0  0  0  0  0  0  0
    6.4302   -1.2375    0.0000 C   0  0  0  0  0  0  0  0  0  0  0  0
    6.4302   -2.0625    0.0000 C   0  0  0  0  0  0  0  0  0  0  0  0
    5.7158   -2.4750    0.0000 C   0  0  0  0  0  0  0  0  0  0  0  0
    5.0013   -2.0625    0.0000 C   0  0  0  0  0  0  0  0  0  0  0  0
    4.2868   -2.4750    0.0000 C   0  0  0  0  0  0  0  0  0  0  0  0
    3.5724   -2.0625    0.0000 O   0  0  0  0  0  0  0  0  0  0  0  0
    4.2868   -3.3000    0.0000 C   0  0  0  0  0  0  0  0  0  0  0  0
    5.0013   -3.7125    0.0000 C   0  0  0  0  0  0  0  0  0  0  0  0
    5.0013   -4.5375    0.0000 O   0  0  0  0  0  0  0  0  0  0  0  0
    5.7158   -3.3000    0.0000 O   0  0  0  0  0  0  0  0  0  0  0  0
    7.1447   -0.0000    0.0000 C   0  0  0  0  0  0  0  0  0  0  0  0
  1  2  1  0  0  0  0
  2  3  1  0  0  0  0
  3  4  1  0  0  0  0
  3  5  1  0  0  0  0
  5  6  2  0  0  0  0
  5  7  1  0  0  0  0
  7  8  1  0  0  0  0
  9  8  1  0  0  0  0
 10  9  1  0  0  0  0
 10 11  1  0  0  0  0
 12 10  1  0  0  0  0
 13 12  2  0  0  0  0
 13 14  1  0  0  0  0
 14 15  2  0  0  0  0
 15 16  1  0  0  0  0
 16 17  1  0  0  0  0
 16 18  1  0  0  0  0
 18 19  1  0  0  0  0
 19 20  1  0  0  0  0
 20 21  1  0  0  0  0
 22 21  1  0  0  0  0
 23 22  1  0  0  0  0
 23 24  1  0  0  0  0
 25 23  1  0  0  0  0
 26 25  1  0  0  0  0
 26 27  2  0  0  0  0
 28 26  1  0  0  0  0
 21 28  1  0  0  0  0
 18 29  1  0  0  0  0
  8 29  1  0  0  0  0
 29 13  1  0  0  0  0
M  END
> <RowID>
1189

> <Original_SMILES>
CCC(C)C(=O)OC1CC(C)C=C2C=CC(C)C(CCC3CC(O)CC(=O)O3)C21

> <Canonical_QSARr>
CCC(C)C(=O)OC1CC(C)C=C2C=CC(C)C(CCC3CC(O)CC(=O)O3)C21

> <InChI_Code_QSARr>
InChI=1S/C24H36O5/c1-5-15(3)24(27)29-21-11-14(2)10-17-7-6-16(4)20(23(17)21)9-8-19-12-18(25)13-22(26)28-19/h6-7,10,14-16,18-21,23,25H,5,8-9,11-13H2,1-4H3

> <InChI Key_QSARr>
PCZOHLXUXFIOCF-UHFFFAOYSA-N

> <Salt_Solvent>


> <Salt_Solvent_ID>
0

> <Number of connected components>
1

$$$$
Molecule_1190
  Mrv2316 01072400032D          

 23 25  0  0  0  0            999 V2000
   -0.7145   -7.0125    0.0000 O   0  0  0  0  0  0  0  0  0  0  0  0
   -0.7145   -6.1875    0.0000 S   0  0  0  0  0  0  0  0  0  0  0  0
    0.1105   -6.1875    0.0000 O   0  0  0  0  0  0  0  0  0  0  0  0
   -1.5395   -6.1875    0.0000 O   0  0  0  0  0  0  0  0  0  0  0  0
   -0.7145   -5.3625    0.0000 C   0  0  0  0  0  0  0  0  0  0  0  0
   -0.0000   -4.9500    0.0000 C   0  0  0  0  0  0  0  0  0  0  0  0
   -0.0000   -4.1250    0.0000 C   0  0  0  0  0  0  0  0  0  0  0  0
   -0.7145   -3.7125    0.0000 C   0  0  0  0  0  0  0  0  0  0  0  0
   -0.7145   -2.8875    0.0000 N   0  0  0  0  0  0  0  0  0  0  0  0
   -0.0000   -2.4750    0.0000 N   0  0  0  0  0  0  0  0  0  0  0  0
   -0.0000   -1.6500    0.0000 C   0  0  0  0  0  0  0  0  0  0  0  0
    0.7145   -1.2375    0.0000 C   0  0  0  0  0  0  0  0  0  0  0  0
    0.7145   -0.4125    0.0000 C   0  0  0  0  0  0  0  0  0  0  0  0
    1.4289   -0.0000    0.0000 C   0  0  0  0  0  0  0  0  0  0  0  0
    2.1434   -0.4125    0.0000 C   0  0  0  0  0  0  0  0  0  0  0  0
    2.1434   -1.2375    0.0000 C   0  0  0  0  0  0  0  0  0  0  0  0
    1.4289   -1.6500    0.0000 C   0  0  0  0  0  0  0  0  0  0  0  0
   -0.0000   -0.0000    0.0000 C   0  0  0  0  0  0  0  0  0  0  0  0
   -0.7145   -0.4125    0.0000 C   0  0  0  0  0  0  0  0  0  0  0  0
   -0.7145   -1.2375    0.0000 C   0  0  0  0  0  0  0  0  0  0  0  0
   -1.4290   -1.6500    0.0000 O   0  0  0  0  0  0  0  0  0  0  0  0
   -1.4290   -4.1250    0.0000 C   0  0  0  0  0  0  0  0  0  0  0  0
   -1.4290   -4.9500    0.0000 C   0  0  0  0  0  0  0  0  0  0  0  0
  1  2  1  0  0  0  0
  2  3  2  0  0  0  0
  2  4  2  0  0  0  0
  2  5  1  0  0  0  0
  6  5  2  0  0  0  0
  7  6  1  0  0  0  0
  8  7  2  0  0  0  0
  9  8  1  4  0  0  0
  9 10  2  0  0  0  0
 10 11  1  0  0  0  0
 12 11  1  0  0  0  0
 12 13  1  0  0  0  0
 13 14  2  0  0  0  0
 14 15  1  0  0  0  0
 15 16  2  0  0  0  0
 16 17  1  0  0  0  0
 17 12  2  0  0  0  0
 18 13  1  0  0  0  0
 19 18  2  0  0  0  0
 20 19  1  0  0  0  0
 11 20  2  0  0  0  0
 20 21  1  0  0  0  0
 22  8  1  0  0  0  0
 23 22  2  0  0  0  0
  5 23  1  0  0  0  0
M  END
> <RowID>
1190

> <Original_SMILES>
[Na+].[O-]S(=O)(=O)C1C=CC(=CC=1)N=NC1=C(O)C=CC2=CC=CC=C21

> <Canonical_QSARr>
OC1C=CC2=CC=CC=C2C=1N=NC1C=CC(=CC=1)S(O)(=O)=O

> <InChI_Code_QSARr>
InChI=1S/C16H12N2O4S/c19-15-10-5-11-3-1-2-4-14(11)16(15)18-17-12-6-8-13(9-7-12)23(20,21)22/h1-10,19H,(H,20,21,22)

> <InChI Key_QSARr>
RDUJRVXKAIVTDH-UHFFFAOYSA-N

> <Salt_Solvent>
[Na+]

> <Salt_Solvent_ID>
110

> <Number of connected components>
2

$$$$
Molecule_1191
  Mrv2316 01072400032D          

 21 20  0  0  0  0            999 V2000
    9.1855    6.1283    0.0000 O   0  0  0  0  0  0  0  0  0  0  0  0
    9.9000    5.7158    0.0000 C   0  0  0  0  0  0  0  0  0  0  0  0
    9.9000    4.8908    0.0000 O   0  0  0  0  0  0  0  0  0  0  0  0
   10.6145    6.1283    0.0000 C   0  0  0  0  0  0  0  0  0  0  0  0
   11.3289    5.7158    0.0000 C   0  0  0  0  0  0  0  0  0  0  0  0
   12.0434    6.1283    0.0000 C   0  0  0  0  0  0  0  0  0  0  0  0
   12.7579    5.7158    0.0000 C   0  0  0  0  0  0  0  0  0  0  0  0
   13.4724    6.1283    0.0000 C   0  0  0  0  0  0  0  0  0  0  0  0
   14.1868    5.7158    0.0000 C   0  0  0  0  0  0  0  0  0  0  0  0
   14.9013    6.1283    0.0000 C   0  0  0  0  0  0  0  0  0  0  0  0
   15.6158    5.7158    0.0000 C   0  0  0  0  0  0  0  0  0  0  0  0
   16.3302    6.1283    0.0000 C   0  0  0  0  0  0  0  0  0  0  0  0
   17.0447    5.7158    0.0000 C   0  0  0  0  0  0  0  0  0  0  0  0
   17.7592    6.1283    0.0000 C   0  0  0  0  0  0  0  0  0  0  0  0
   18.4736    5.7158    0.0000 C   0  0  0  0  0  0  0  0  0  0  0  0
   19.1881    6.1283    0.0000 C   0  0  0  0  0  0  0  0  0  0  0  0
   19.9026    5.7158    0.0000 C   0  0  0  0  0  0  0  0  0  0  0  0
   20.6171    6.1283    0.0000 C   0  0  0  0  0  0  0  0  0  0  0  0
   21.3315    5.7158    0.0000 C   0  0  0  0  0  0  0  0  0  0  0  0
   22.0460    6.1283    0.0000 C   0  0  0  0  0  0  0  0  0  0  0  0
   17.7592    6.9533    0.0000 O   0  0  0  0  0  0  0  0  0  0  0  0
  1  2  1  0  0  0  0
  2  3  2  0  0  0  0
  2  4  1  0  0  0  0
  4  5  1  0  0  0  0
  5  6  1  0  0  0  0
  6  7  1  0  0  0  0
  7  8  1  0  0  0  0
  8  9  1  0  0  0  0
  9 10  1  0  0  0  0
 10 11  1  0  0  0  0
 11 12  1  0  0  0  0
 12 13  1  0  0  0  0
 13 14  1  0  0  0  0
 14 15  1  0  0  0  0
 15 16  1  0  0  0  0
 16 17  1  0  0  0  0
 17 18  1  0  0  0  0
 18 19  1  0  0  0  0
 19 20  1  0  0  0  0
 14 21  1  0  0  0  0
M  END
> <RowID>
1191

> <Original_SMILES>
[Zn+2].CCCCCCC(O)CCCCCCCCCCC([O-])=O.CCCCCCC(O)CCCCCCCCCCC([O-])=O

> <Canonical_QSARr>
CCCCCCC(O)CCCCCCCCCCC(O)=O

> <InChI_Code_QSARr>
InChI=1S/C18H36O3/c1-2-3-4-11-14-17(19)15-12-9-7-5-6-8-10-13-16-18(20)21/h17,19H,2-16H2,1H3,(H,20,21)

> <InChI Key_QSARr>
ULQISTXYYBZJSJ-UHFFFAOYSA-N

> <Salt_Solvent>
[Zn+2]

> <Salt_Solvent_ID>
300

> <Number of connected components>
3

$$$$
Molecule_1192
  Mrv2316 01072400032D          

 23 24  0  0  0  0            999 V2000
   -0.3590   -1.2375    0.0000 C   0  0  0  0  0  0  0  0  0  0  0  0
    0.4660   -1.2375    0.0000 C   0  0  0  0  0  0  0  0  0  0  0  0
    1.2910   -1.2375    0.0000 C   0  0  0  0  0  0  0  0  0  0  0  0
    0.4660   -0.4125    0.0000 C   0  0  0  0  0  0  0  0  0  0  0  0
    1.1804    0.0000    0.0000 C   0  0  0  0  0  0  0  0  0  0  0  0
    1.1804    0.8250    0.0000 C   0  0  0  0  0  0  0  0  0  0  0  0
    0.4660    1.2375    0.0000 C   0  0  0  0  0  0  0  0  0  0  0  0
    0.4660    2.0625    0.0000 O   0  0  0  0  0  0  0  0  0  0  0  0
   -0.2485    2.4750    0.0000 C   0  0  0  0  0  0  0  0  0  0  0  0
   -0.2485    3.3000    0.0000 C   0  0  0  0  0  0  0  0  0  0  0  0
   -0.9630    3.7125    0.0000 O   0  0  0  0  0  0  0  0  0  0  0  0
   -0.2485    0.8250    0.0000 C   0  0  0  0  0  0  0  0  0  0  0  0
   -0.2485    0.0000    0.0000 C   0  0  0  0  0  0  0  0  0  0  0  0
    0.4660   -2.0625    0.0000 C   0  0  0  0  0  0  0  0  0  0  0  0
   -0.2485   -2.4750    0.0000 C   0  0  0  0  0  0  0  0  0  0  0  0
   -0.2485   -3.3000    0.0000 C   0  0  0  0  0  0  0  0  0  0  0  0
    0.4660   -3.7125    0.0000 C   0  0  0  0  0  0  0  0  0  0  0  0
    0.4660   -4.5375    0.0000 O   0  0  0  0  0  0  0  0  0  0  0  0
    1.1804   -4.9500    0.0000 C   0  0  0  0  0  0  0  0  0  0  0  0
    1.1804   -5.7750    0.0000 C   0  0  0  0  0  0  0  0  0  0  0  0
    1.8949   -6.1875    0.0000 O   0  0  0  0  0  0  0  0  0  0  0  0
    1.1804   -3.3000    0.0000 C   0  0  0  0  0  0  0  0  0  0  0  0
    1.1804   -2.4750    0.0000 C   0  0  0  0  0  0  0  0  0  0  0  0
  1  2  1  0  0  0  0
  2  3  1  0  0  0  0
  2  4  1  0  0  0  0
  5  4  1  0  0  0  0
  6  5  2  0  0  0  0
  7  6  1  0  0  0  0
  7  8  1  0  0  0  0
  8  9  1  0  0  0  0
  9 10  1  0  0  0  0
 10 11  1  0  0  0  0
 12  7  2  0  0  0  0
 13 12  1  0  0  0  0
  4 13  2  0  0  0  0
  2 14  1  0  0  0  0
 15 14  1  0  0  0  0
 16 15  2  0  0  0  0
 17 16  1  0  0  0  0
 17 18  1  0  0  0  0
 18 19  1  0  0  0  0
 19 20  1  0  0  0  0
 20 21  1  0  0  0  0
 22 17  2  0  0  0  0
 23 22  1  0  0  0  0
 14 23  2  0  0  0  0
M  END
> <RowID>
1192

> <Original_SMILES>
CC(C)(C1C=CC(=CC=1)OCCO)C1C=CC(=CC=1)OCCO

> <Canonical_QSARr>
CC(C)(C1C=CC(=CC=1)OCCO)C1C=CC(=CC=1)OCCO

> <InChI_Code_QSARr>
InChI=1S/C19H24O4/c1-19(2,15-3-7-17(8-4-15)22-13-11-20)16-5-9-18(10-6-16)23-14-12-21/h3-10,20-21H,11-14H2,1-2H3

> <InChI Key_QSARr>
UUAGPGQUHZVJBQ-UHFFFAOYSA-N

> <Salt_Solvent>


> <Salt_Solvent_ID>
0

> <Number of connected components>
1

$$$$
Molecule_1193
  Mrv2316 01072400032D          

 31 34  0  0  0  0            999 V2000
   -2.8579   -5.7750    0.0000 O   0  0  0  0  0  0  0  0  0  0  0  0
   -2.1434   -5.3625    0.0000 S   0  0  0  0  0  0  0  0  0  0  0  0
   -2.5559   -4.6480    0.0000 O   0  0  0  0  0  0  0  0  0  0  0  0
   -1.7309   -6.0770    0.0000 O   0  0  0  0  0  0  0  0  0  0  0  0
   -1.4289   -4.9500    0.0000 C   0  0  0  0  0  0  0  0  0  0  0  0
   -0.7145   -5.3625    0.0000 C   0  0  0  0  0  0  0  0  0  0  0  0
   -0.0000   -4.9500    0.0000 C   0  0  0  0  0  0  0  0  0  0  0  0
    0.7145   -5.3625    0.0000 C   0  0  0  0  0  0  0  0  0  0  0  0
    0.7145   -6.1875    0.0000 C   0  0  0  0  0  0  0  0  0  0  0  0
   -0.0000   -6.6000    0.0000 C   0  0  0  0  0  0  0  0  0  0  0  0
   -0.7145   -6.1875    0.0000 C   0  0  0  0  0  0  0  0  0  0  0  0
   -0.0000   -4.1250    0.0000 C   0  0  0  0  0  0  0  0  0  0  0  0
    0.7145   -3.7125    0.0000 O   0  0  0  0  0  0  0  0  0  0  0  0
   -0.7145   -3.7125    0.0000 C   0  0  0  0  0  0  0  0  0  0  0  0
   -0.7145   -2.8875    0.0000 N   0  0  0  0  0  0  0  0  0  0  0  0
   -0.0000   -2.4750    0.0000 N   0  0  0  0  0  0  0  0  0  0  0  0
   -0.0000   -1.6500    0.0000 C   0  0  0  0  0  0  0  0  0  0  0  0
    0.7145   -1.2375    0.0000 C   0  0  0  0  0  0  0  0  0  0  0  0
    0.7145   -0.4125    0.0000 C   0  0  0  0  0  0  0  0  0  0  0  0
    1.4289    0.0000    0.0000 C   0  0  0  0  0  0  0  0  0  0  0  0
    2.1434   -0.4125    0.0000 C   0  0  0  0  0  0  0  0  0  0  0  0
    2.1434   -1.2375    0.0000 C   0  0  0  0  0  0  0  0  0  0  0  0
    1.4289   -1.6500    0.0000 C   0  0  0  0  0  0  0  0  0  0  0  0
   -0.0000    0.0000    0.0000 C   0  0  0  0  0  0  0  0  0  0  0  0
   -0.0000    0.8250    0.0000 S   0  0  0  0  0  0  0  0  0  0  0  0
   -0.0000    1.6500    0.0000 O   0  0  0  0  0  0  0  0  0  0  0  0
    0.8250    0.8250    0.0000 O   0  0  0  0  0  0  0  0  0  0  0  0
   -0.8250    0.8250    0.0000 O   0  0  0  0  0  0  0  0  0  0  0  0
   -0.7145   -0.4125    0.0000 C   0  0  0  0  0  0  0  0  0  0  0  0
   -0.7145   -1.2375    0.0000 C   0  0  0  0  0  0  0  0  0  0  0  0
   -1.4289   -4.1250    0.0000 C   0  0  0  0  0  0  0  0  0  0  0  0
  1  2  1  0  0  0  0
  2  3  2  0  0  0  0
  2  4  2  0  0  0  0
  2  5  1  0  0  0  0
  6  5  1  0  0  0  0
  6  7  2  0  0  0  0
  7  8  1  0  0  0  0
  8  9  2  0  0  0  0
  9 10  1  0  0  0  0
 10 11  2  0  0  0  0
 11  6  1  0  0  0  0
 12  7  1  0  0  0  0
 12 13  1  0  0  0  0
 14 12  2  0  0  0  0
 15 14  1  4  0  0  0
 15 16  2  0  0  0  0
 16 17  1  0  0  0  0
 18 17  1  0  0  0  0
 18 19  1  0  0  0  0
 19 20  2  0  0  0  0
 20 21  1  0  0  0  0
 21 22  2  0  0  0  0
 22 23  1  0  0  0  0
 23 18  2  0  0  0  0
 24 19  1  0  0  0  0
 24 25  1  0  0  0  0
 25 26  1  0  0  0  0
 25 27  2  0  0  0  0
 25 28  2  0  0  0  0
 29 24  2  0  0  0  0
 30 29  1  0  0  0  0
 17 30  2  0  0  0  0
 31 14  1  0  0  0  0
  5 31  2  0  0  0  0
M  END
> <RowID>
1193

> <Original_SMILES>
[Na+].[Na+].[O-]S(=O)(=O)C1C=CC(N=NC2C=C(C3C=CC=CC=3C=2O)S([O-])(=O)=O)=C2C=CC=CC=12

> <Canonical_QSARr>
OC1C2C=CC=CC=2C(=CC=1N=NC1=CC=C(C2=CC=CC=C21)S(O)(=O)=O)S(O)(=O)=O

> <InChI_Code_QSARr>
InChI=1S/C20H14N2O7S2/c23-20-15-8-4-3-7-14(15)19(31(27,28)29)11-17(20)22-21-16-9-10-18(30(24,25)26)13-6-2-1-5-12(13)16/h1-11,23H,(H,24,25,26)(H,27,28,29)

> <InChI Key_QSARr>
TVWOWDDBXAFQDG-UHFFFAOYSA-N

> <Salt_Solvent>
[Na+]

> <Salt_Solvent_ID>
110

> <Number of connected components>
3

$$$$
Molecule_1194
  Mrv2316 01072400032D          

 10 10  0  0  0  0            999 V2000
   -0.3572    2.2688    0.0000 C   0  0  0  0  0  0  0  0  0  0  0  0
   -0.3572    1.4438    0.0000 C   0  0  0  0  0  0  0  0  0  0  0  0
   -1.0717    1.0313    0.0000 O   0  0  0  0  0  0  0  0  0  0  0  0
    0.3572    1.0313    0.0000 C   0  0  0  0  0  0  0  0  0  0  0  0
    0.3572    0.2062    0.0000 C   0  0  0  0  0  0  0  0  0  0  0  0
    1.0717   -0.2063    0.0000 C   0  0  0  0  0  0  0  0  0  0  0  0
    1.7862    0.2062    0.0000 C   0  0  0  0  0  0  0  0  0  0  0  0
    1.7862    1.0312    0.0000 C   0  0  0  0  0  0  0  0  0  0  0  0
    1.0717    1.4437    0.0000 C   0  0  0  0  0  0  0  0  0  0  0  0
    1.0717    2.2687    0.0000 O   0  0  0  0  0  0  0  0  0  0  0  0
  1  2  1  0  0  0  0
  2  3  2  0  0  0  0
  2  4  1  0  0  0  0
  5  4  2  0  0  0  0
  6  5  1  0  0  0  0
  7  6  2  0  0  0  0
  8  7  1  0  0  0  0
  9  8  2  0  0  0  0
  4  9  1  0  0  0  0
  9 10  1  0  0  0  0
M  END
> <RowID>
1194

> <Original_SMILES>
CC(=O)C1=CC=CC=C1O

> <Canonical_QSARr>
CC(=O)C1=CC=CC=C1O

> <InChI_Code_QSARr>
InChI=1S/C8H8O2/c1-6(9)7-4-2-3-5-8(7)10/h2-5,10H,1H3

> <InChI Key_QSARr>
JECYUBVRTQDVAT-UHFFFAOYSA-N

> <Salt_Solvent>


> <Salt_Solvent_ID>
0

> <Number of connected components>
1

$$$$
Molecule_1196
  Mrv2316 01072400032D          

  6  5  0  0  0  0            999 V2000
    0.8250    1.4289    0.0000 C   0  0  0  0  0  0  0  0  0  0  0  0
    1.2375    0.7145    0.0000 C   0  0  0  0  0  0  0  0  0  0  0  0
    2.0625    0.7145    0.0000 C   0  0  0  0  0  0  0  0  0  0  0  0
    0.8250   -0.0000    0.0000 C   0  0  0  0  0  0  0  0  0  0  0  0
    1.2375   -0.7145    0.0000 C   0  0  0  0  0  0  0  0  0  0  0  0
    0.0000   -0.0000    0.0000 O   0  0  0  0  0  0  0  0  0  0  0  0
  1  2  1  0  0  0  0
  2  3  1  0  0  0  0
  2  4  1  0  0  0  0
  4  5  1  0  0  0  0
  4  6  2  0  0  0  0
M  END
> <RowID>
1196

> <Original_SMILES>
CC(C)C(C)=O

> <Canonical_QSARr>
CC(C)C(C)=O

> <InChI_Code_QSARr>
InChI=1S/C5H10O/c1-4(2)5(3)6/h4H,1-3H3

> <InChI Key_QSARr>
SYBYTAAJFKOIEJ-UHFFFAOYSA-N

> <Salt_Solvent>


> <Salt_Solvent_ID>
0

> <Number of connected components>
1

$$$$
Molecule_1197
  Mrv2316 01072400032D          

 25 27  0  0  0  0            999 V2000
   -2.3435    2.5410    0.0000 O   0  0  0  0  0  0  0  0  0  0  0  0
   -2.3435    1.7160    0.0000 S   0  0  0  0  0  0  0  0  0  0  0  0
   -3.1685    1.7160    0.0000 O   0  0  0  0  0  0  0  0  0  0  0  0
   -1.5185    1.7160    0.0000 O   0  0  0  0  0  0  0  0  0  0  0  0
   -2.3435    0.8910    0.0000 C   0  0  0  0  0  0  0  0  0  0  0  0
   -3.0579    0.4785    0.0000 C   0  0  0  0  0  0  0  0  0  0  0  0
   -3.0579   -0.3465    0.0000 C   0  0  0  0  0  0  0  0  0  0  0  0
   -2.3435   -0.7590    0.0000 C   0  0  0  0  0  0  0  0  0  0  0  0
   -2.3435   -1.5840    0.0000 O   0  0  0  0  0  0  0  0  0  0  0  0
   -1.6290   -0.3465    0.0000 C   0  0  0  0  0  0  0  0  0  0  0  0
   -0.9145   -0.7590    0.0000 N   0  0  0  0  0  0  0  0  0  0  0  0
   -0.2001   -0.3465    0.0000 N   0  0  0  0  0  0  0  0  0  0  0  0
    0.5144   -0.7590    0.0000 C   0  0  0  0  0  0  0  0  0  0  0  0
    1.2289   -0.3465    0.0000 C   0  0  0  0  0  0  0  0  0  0  0  0
    1.2289    0.4785    0.0000 O   0  0  0  0  0  0  0  0  0  0  0  0
    1.9434   -0.7590    0.0000 C   0  0  0  0  0  0  0  0  0  0  0  0
    2.6578   -0.3465    0.0000 C   0  0  0  0  0  0  0  0  0  0  0  0
    3.3723   -0.7590    0.0000 C   0  0  0  0  0  0  0  0  0  0  0  0
    3.3723   -1.5840    0.0000 C   0  0  0  0  0  0  0  0  0  0  0  0
    2.6578   -1.9965    0.0000 C   0  0  0  0  0  0  0  0  0  0  0  0
    2.6578   -2.8215    0.0000 O   0  0  0  0  0  0  0  0  0  0  0  0
    1.9434   -1.5840    0.0000 C   0  0  0  0  0  0  0  0  0  0  0  0
    1.2289   -1.9965    0.0000 C   0  0  0  0  0  0  0  0  0  0  0  0
    0.5144   -1.5840    0.0000 C   0  0  0  0  0  0  0  0  0  0  0  0
   -1.6290    0.4785    0.0000 C   0  0  0  0  0  0  0  0  0  0  0  0
  1  2  1  0  0  0  0
  2  3  2  0  0  0  0
  2  4  2  0  0  0  0
  2  5  1  0  0  0  0
  6  5  2  0  0  0  0
  7  6  1  0  0  0  0
  8  7  2  0  0  0  0
  8  9  1  0  0  0  0
 10  8  1  0  0  0  0
 11 10  1  4  0  0  0
 11 12  2  0  0  0  0
 12 13  1  0  0  0  0
 14 13  2  0  0  0  0
 14 15  1  0  0  0  0
 16 14  1  0  0  0  0
 16 17  2  0  0  0  0
 17 18  1  0  0  0  0
 18 19  2  0  0  0  0
 19 20  1  0  0  0  0
 20 21  1  0  0  0  0
 20 22  2  0  0  0  0
 22 16  1  0  0  0  0
 23 22  1  0  0  0  0
 24 23  2  0  0  0  0
 13 24  1  0  0  0  0
 25 10  2  0  0  0  0
  5 25  1  0  0  0  0
M  END
> <RowID>
1197

> <Original_SMILES>
[Na+].[O-]S(=O)(=O)C1C=C(N=NC2=CC=C3C(C=CC=C3O)=C2O)C(O)=CC=1

> <Canonical_QSARr>
OC1C=CC=C2C=1C=CC(N=NC1=CC(=CC=C1O)S(O)(=O)=O)=C2O

> <InChI_Code_QSARr>
InChI=1S/C16H12N2O6S/c19-14-3-1-2-11-10(14)5-6-12(16(11)21)17-18-13-8-9(25(22,23)24)4-7-15(13)20/h1-8,19-21H,(H,22,23,24)

> <InChI Key_QSARr>
HETKNRGJVSOOEF-UHFFFAOYSA-N

> <Salt_Solvent>
[Na+]

> <Salt_Solvent_ID>
110

> <Number of connected components>
2

$$$$
Molecule_1198
  Mrv2316 01072400032D          

 11 11  0  0  0  0            999 V2000
    1.2341    1.7625    0.0000 C   0  0  0  0  0  0  0  0  0  0  0  0
    0.5196    1.3500    0.0000 C   0  0  0  0  0  0  0  0  0  0  0  0
   -0.1949    1.7625    0.0000 C   0  0  0  0  0  0  0  0  0  0  0  0
   -0.1949    2.5875    0.0000 Cl  0  0  0  0  0  0  0  0  0  0  0  0
   -0.9093    1.3500    0.0000 C   0  0  0  0  0  0  0  0  0  0  0  0
   -0.9093    0.5250    0.0000 C   0  0  0  0  0  0  0  0  0  0  0  0
   -0.1949    0.1125    0.0000 C   0  0  0  0  0  0  0  0  0  0  0  0
    0.5196    0.5250    0.0000 C   0  0  0  0  0  0  0  0  0  0  0  0
    1.2341    0.1125    0.0000 N   0  3  0  0  0  0  0  0  0  0  0  0
    1.9486    0.5250    0.0000 O   0  5  0  0  0  0  0  0  0  0  0  0
    1.2341   -0.7125    0.0000 O   0  0  0  0  0  0  0  0  0  0  0  0
  1  2  1  0  0  0  0
  3  2  1  0  0  0  0
  3  4  1  0  0  0  0
  5  3  2  0  0  0  0
  6  5  1  0  0  0  0
  7  6  2  0  0  0  0
  8  7  1  0  0  0  0
  2  8  2  0  0  0  0
  8  9  1  0  0  0  0
  9 10  1  0  0  0  0
  9 11  2  0  0  0  0
M  CHG  2   9   1  10  -1
M  END
> <RowID>
1198

> <Original_SMILES>
CC1C(Cl)=CC=CC=1[N+]([O-])=O

> <Canonical_QSARr>
CC1C(Cl)=CC=CC=1[N+]([O-])=O

> <InChI_Code_QSARr>
InChI=1S/C7H6ClNO2/c1-5-6(8)3-2-4-7(5)9(10)11/h2-4H,1H3

> <InChI Key_QSARr>
XCSNRORTQRKCHB-UHFFFAOYSA-N

> <Salt_Solvent>


> <Salt_Solvent_ID>
0

> <Number of connected components>
1

$$$$
Molecule_1199
  Mrv2316 01072400032D          

  8  7  0  0  0  0            999 V2000
    0.8250   -1.6500    0.0000 F   0  0  0  0  0  0  0  0  0  0  0  0
    0.8250   -0.8250    0.0000 C   0  0  0  0  0  0  0  0  0  0  0  0
    1.6500   -0.8250    0.0000 F   0  0  0  0  0  0  0  0  0  0  0  0
    0.0000   -0.8250    0.0000 F   0  0  0  0  0  0  0  0  0  0  0  0
    0.8250    0.0000    0.0000 C   0  0  0  0  0  0  0  0  0  0  0  0
    0.8250    0.8250    0.0000 Cl  0  0  0  0  0  0  0  0  0  0  0  0
    1.6500   -0.0000    0.0000 Cl  0  0  0  0  0  0  0  0  0  0  0  0
    0.0000    0.0000    0.0000 Cl  0  0  0  0  0  0  0  0  0  0  0  0
  1  2  1  0  0  0  0
  2  3  1  0  0  0  0
  2  4  1  0  0  0  0
  2  5  1  0  0  0  0
  5  6  1  0  0  0  0
  5  7  1  0  0  0  0
  5  8  1  0  0  0  0
M  END
> <RowID>
1199

> <Original_SMILES>
FC(F)(F)C(Cl)(Cl)Cl

> <Canonical_QSARr>
FC(F)(F)C(Cl)(Cl)Cl

> <InChI_Code_QSARr>
InChI=1S/C2Cl3F3/c3-1(4,5)2(6,7)8

> <InChI Key_QSARr>
BOSAWIQFTJIYIS-UHFFFAOYSA-N

> <Salt_Solvent>


> <Salt_Solvent_ID>
0

> <Number of connected components>
1

$$$$
Molecule_1200
  Mrv2316 01072400032D          

 12 11  0  0  0  0            999 V2000
    4.2355    3.2704    0.0000 C   0  0  0  0  0  0  0  0  0  0  0  0
    4.9500    2.8579    0.0000 C   0  0  0  0  0  0  0  0  0  0  0  0
    5.6645    3.2704    0.0000 C   0  0  0  0  0  0  0  0  0  0  0  0
    6.3789    2.8579    0.0000 C   0  0  0  0  0  0  0  0  0  0  0  0
    7.0934    3.2704    0.0000 C   0  0  0  0  0  0  0  0  0  0  0  0
    7.8079    2.8579    0.0000 C   0  0  0  0  0  0  0  0  0  0  0  0
    8.5224    3.2704    0.0000 C   0  0  0  0  0  0  0  0  0  0  0  0
    9.2368    2.8579    0.0000 C   0  0  0  0  0  0  0  0  0  0  0  0
    9.9513    3.2704    0.0000 C   0  0  0  0  0  0  0  0  0  0  0  0
    9.9513    4.0954    0.0000 O   0  0  0  0  0  0  0  0  0  0  0  0
   10.6658    2.8579    0.0000 C   0  0  0  0  0  0  0  0  0  0  0  0
   11.3802    3.2704    0.0000 O   0  0  0  0  0  0  0  0  0  0  0  0
  1  2  1  0  0  0  0
  2  3  1  0  0  0  0
  3  4  1  0  0  0  0
  4  5  1  0  0  0  0
  5  6  1  0  0  0  0
  6  7  1  0  0  0  0
  7  8  1  0  0  0  0
  8  9  1  0  0  0  0
  9 10  1  0  0  0  0
  9 11  1  0  0  0  0
 11 12  1  0  0  0  0
M  END
> <RowID>
1200

> <Original_SMILES>
CCCCCCCCC(O)CO

> <Canonical_QSARr>
CCCCCCCCC(O)CO

> <InChI_Code_QSARr>
InChI=1S/C10H22O2/c1-2-3-4-5-6-7-8-10(12)9-11/h10-12H,2-9H2,1H3

> <InChI Key_QSARr>
YSRSBDQINUMTIF-UHFFFAOYSA-N

> <Salt_Solvent>


> <Salt_Solvent_ID>
0

> <Number of connected components>
1

$$$$
Molecule_1202
  Mrv2316 01072400032D          

  6  5  0  0  0  0            999 V2000
    1.2375    2.1434    0.0000 C   0  0  0  0  0  0  0  0  0  0  0  0
    0.8250    1.4289    0.0000 C   0  0  0  0  0  0  0  0  0  0  0  0
    1.2375    0.7145    0.0000 O   0  0  0  0  0  0  0  0  0  0  0  0
    0.8250   -0.0000    0.0000 C   0  0  0  0  0  0  0  0  0  0  0  0
    1.2375   -0.7145    0.0000 C   0  0  0  0  0  0  0  0  0  0  0  0
    0.0000   -0.0000    0.0000 O   0  0  0  0  0  0  0  0  0  0  0  0
  1  2  1  0  0  0  0
  2  3  1  0  0  0  0
  3  4  1  0  0  0  0
  4  5  1  0  0  0  0
  4  6  2  0  0  0  0
M  END
> <RowID>
1202

> <Original_SMILES>
CCOC(C)=O

> <Canonical_QSARr>
CCOC(C)=O

> <InChI_Code_QSARr>
InChI=1S/C4H8O2/c1-3-6-4(2)5/h3H2,1-2H3

> <InChI Key_QSARr>
XEKOWRVHYACXOJ-UHFFFAOYSA-N

> <Salt_Solvent>


> <Salt_Solvent_ID>
0

> <Number of connected components>
1

$$$$
Molecule_1203
  Mrv2316 01072400032D          

 27 27  0  0  0  0            999 V2000
    3.6545  -11.5157    0.0000 C   0  0  0  0  0  0  0  0  0  0  0  0
    3.9246  -10.7362    0.0000 C   0  0  0  0  0  0  0  0  0  0  0  0
    4.7347  -10.5803    0.0000 O   0  0  0  0  0  0  0  0  0  0  0  0
    5.0048   -9.8007    0.0000 C   0  0  0  0  0  0  0  0  0  0  0  0
    4.4647   -9.1771    0.0000 O   0  0  0  0  0  0  0  0  0  0  0  0
    5.8149   -9.6448    0.0000 C   0  0  0  0  0  0  0  0  0  0  0  0
    6.0849   -8.8653    0.0000 C   0  0  0  0  0  0  0  0  0  0  0  0
    6.8951   -8.7094    0.0000 C   0  0  0  0  0  0  0  0  0  0  0  0
    7.1651   -7.9298    0.0000 N   0  0  0  0  0  0  0  0  0  0  0  0
    7.9752   -7.7739    0.0000 C   0  0  0  0  0  0  0  0  0  0  0  0
    8.5153   -8.3975    0.0000 O   0  0  0  0  0  0  0  0  0  0  0  0
    8.2453   -6.9943    0.0000 C   0  0  0  0  0  0  0  0  0  0  0  0
    9.0554   -6.8384    0.0000 C   0  0  0  0  0  0  0  0  0  0  0  0
    9.3255   -6.0589    0.0000 C   0  0  0  0  0  0  0  0  0  0  0  0
    8.7854   -5.4352    0.0000 C   0  0  0  0  0  0  0  0  0  0  0  0
    9.0554   -4.6557    0.0000 C   0  0  0  0  0  0  0  0  0  0  0  0
    9.8656   -4.4998    0.0000 C   0  0  0  0  0  0  0  0  0  0  0  0
   10.1356   -3.7202    0.0000 C   0  0  0  0  0  0  0  0  0  0  0  0
   10.9457   -3.5643    0.0000 C   0  0  0  0  0  0  0  0  0  0  0  0
   11.2158   -2.7848    0.0000 O   0  0  0  0  0  0  0  0  0  0  0  0
    7.9752   -5.5911    0.0000 C   0  0  0  0  0  0  0  0  0  0  0  0
    7.7052   -6.3707    0.0000 C   0  0  0  0  0  0  0  0  0  0  0  0
    7.4352   -9.3330    0.0000 C   0  0  0  0  0  0  0  0  0  0  0  0
    8.2453   -9.1771    0.0000 O   0  0  0  0  0  0  0  0  0  0  0  0
    7.1651  -10.1125    0.0000 O   0  0  0  0  0  0  0  0  0  0  0  0
    7.7052  -10.7362    0.0000 C   0  0  0  0  0  0  0  0  0  0  0  0
    7.4352  -11.5157    0.0000 C   0  0  0  0  0  0  0  0  0  0  0  0
  1  2  1  0  0  0  0
  2  3  1  0  0  0  0
  3  4  1  0  0  0  0
  4  5  2  0  0  0  0
  4  6  1  0  0  0  0
  6  7  1  0  0  0  0
  7  8  1  0  0  0  0
  8  9  1  0  0  0  0
  9 10  1  0  0  0  0
 10 11  2  0  0  0  0
 10 12  1  0  0  0  0
 13 12  1  0  0  0  0
 14 13  2  0  0  0  0
 15 14  1  0  0  0  0
 15 16  1  0  0  0  0
 16 17  1  0  0  0  0
 17 18  1  0  0  0  0
 18 19  1  0  0  0  0
 19 20  2  0  0  0  0
 21 15  2  0  0  0  0
 22 21  1  0  0  0  0
 12 22  2  0  0  0  0
  8 23  1  0  0  0  0
 23 24  2  0  0  0  0
 23 25  1  0  0  0  0
 25 26  1  0  0  0  0
 26 27  1  0  0  0  0
M  END
> <RowID>
1203

> <Original_SMILES>
CCOC(=O)CCC(NC(=O)C1C=CC(CCCC=O)=CC=1)C(=O)OCC

> <Canonical_QSARr>
CCOC(=O)CCC(NC(=O)C1C=CC(CCCC=O)=CC=1)C(=O)OCC

> <InChI_Code_QSARr>
InChI=1S/C20H27NO6/c1-3-26-18(23)13-12-17(20(25)27-4-2)21-19(24)16-10-8-15(9-11-16)7-5-6-14-22/h8-11,14,17H,3-7,12-13H2,1-2H3,(H,21,24)

> <InChI Key_QSARr>
ZQIWUAMQMRFJEB-UHFFFAOYSA-N

> <Salt_Solvent>


> <Salt_Solvent_ID>
0

> <Number of connected components>
1

$$$$
Molecule_1204
  Mrv2316 01072400032D          

 25 24  0  0  0  0            999 V2000
    2.2835    2.1434    0.0000 C   0  0  0  0  0  0  0  0  0  0  0  0
    2.9980    2.5559    0.0000 C   0  0  0  0  0  0  0  0  0  0  0  0
    2.9980    3.3809    0.0000 C   0  0  0  0  0  0  0  0  0  0  0  0
    2.2835    3.7934    0.0000 C   0  0  0  0  0  0  0  0  0  0  0  0
    1.5691    3.3809    0.0000 O   0  0  0  0  0  0  0  0  0  0  0  0
    2.2835    4.6184    0.0000 O   0  0  0  0  0  0  0  0  0  0  0  0
    1.5691    5.0309    0.0000 C   0  0  0  0  0  0  0  0  0  0  0  0
    1.5691    5.8559    0.0000 C   0  0  0  0  0  0  0  0  0  0  0  0
    0.8546    6.2684    0.0000 C   0  0  0  0  0  0  0  0  0  0  0  0
    0.8546    7.0934    0.0000 C   0  0  0  0  0  0  0  0  0  0  0  0
    0.1401    7.5059    0.0000 C   0  0  0  0  0  0  0  0  0  0  0  0
    0.1401    8.3309    0.0000 C   0  0  0  0  0  0  0  0  0  0  0  0
    2.2835    6.2684    0.0000 C   0  0  0  0  0  0  0  0  0  0  0  0
    2.2835    7.0934    0.0000 C   0  0  0  0  0  0  0  0  0  0  0  0
    3.7125    2.1434    0.0000 C   0  0  0  0  0  0  0  0  0  0  0  0
    3.7125    1.3184    0.0000 O   0  0  0  0  0  0  0  0  0  0  0  0
    4.4270    2.5559    0.0000 O   0  0  0  0  0  0  0  0  0  0  0  0
    5.1414    2.1434    0.0000 C   0  0  0  0  0  0  0  0  0  0  0  0
    5.8559    2.5559    0.0000 C   0  0  0  0  0  0  0  0  0  0  0  0
    6.5704    2.1434    0.0000 C   0  0  0  0  0  0  0  0  0  0  0  0
    7.2848    2.5559    0.0000 C   0  0  0  0  0  0  0  0  0  0  0  0
    7.9993    2.1434    0.0000 C   0  0  0  0  0  0  0  0  0  0  0  0
    8.7138    2.5559    0.0000 C   0  0  0  0  0  0  0  0  0  0  0  0
    5.8559    3.3809    0.0000 C   0  0  0  0  0  0  0  0  0  0  0  0
    6.5704    3.7934    0.0000 C   0  0  0  0  0  0  0  0  0  0  0  0
  1  2  1  0  0  0  0
  2  3  2  0  0  0  0
  3  4  1  4  0  0  0
  4  5  2  0  0  0  0
  4  6  1  0  0  0  0
  6  7  1  0  0  0  0
  7  8  1  0  0  0  0
  8  9  1  0  0  0  0
  9 10  1  0  0  0  0
 10 11  1  0  0  0  0
 11 12  1  0  0  0  0
  8 13  1  0  0  0  0
 13 14  1  0  0  0  0
  2 15  1  0  0  0  0
 15 16  2  0  0  0  0
 15 17  1  0  0  0  0
 17 18  1  0  0  0  0
 18 19  1  0  0  0  0
 19 20  1  0  0  0  0
 20 21  1  0  0  0  0
 21 22  1  0  0  0  0
 22 23  1  0  0  0  0
 19 24  1  0  0  0  0
 24 25  1  0  0  0  0
M  END
> <RowID>
1204

> <Original_SMILES>
CC(=CC(=O)OCC(CCCC)CC)C(=O)OCC(CCCC)CC

> <Canonical_QSARr>
CC(=CC(=O)OCC(CCCC)CC)C(=O)OCC(CCCC)CC

> <InChI_Code_QSARr>
InChI=1S/C21H38O4/c1-6-10-12-18(8-3)15-24-20(22)14-17(5)21(23)25-16-19(9-4)13-11-7-2/h14,18-19H,6-13,15-16H2,1-5H3

> <InChI Key_QSARr>
PPAJKSBNLWWSIM-UHFFFAOYSA-N

> <Salt_Solvent>


> <Salt_Solvent_ID>
0

> <Number of connected components>
1

$$$$
Molecule_1205
  Mrv2316 01072400032D          

 14 15  0  0  0  0            999 V2000
    3.8339    1.5063    0.0000 C   0  0  0  0  0  0  0  0  0  0  0  0
    3.1194    1.9188    0.0000 C   0  0  0  0  0  0  0  0  0  0  0  0
    3.1194    2.7439    0.0000 C   0  0  0  0  0  0  0  0  0  0  0  0
    2.4049    3.1564    0.0000 S   0  0  0  0  0  0  0  0  0  0  0  0
    1.6905    2.7439    0.0000 C   0  0  0  0  0  0  0  0  0  0  0  0
    0.8655    2.7439    0.0000 C   0  0  0  0  0  0  0  0  0  0  0  0
    0.2821    3.3272    0.0000 N   0  0  0  0  0  0  0  0  0  0  0  0
    0.8655    1.9189    0.0000 C   0  0  0  0  0  0  0  0  0  0  0  0
    0.2821    1.3355    0.0000 O   0  0  0  0  0  0  0  0  0  0  0  0
    1.6905    1.9189    0.0000 N   0  0  0  0  0  0  0  0  0  0  0  0
    2.4049    1.5064    0.0000 C   0  0  0  0  0  0  0  0  0  0  0  0
    2.4049    0.6814    0.0000 C   0  0  0  0  0  0  0  0  0  0  0  0
    3.1194    0.2689    0.0000 O   0  0  0  0  0  0  0  0  0  0  0  0
    1.6905    0.2689    0.0000 O   0  0  0  0  0  0  0  0  0  0  0  0
  1  2  1  0  0  0  0
  3  2  1  0  0  0  0
  4  3  1  0  0  0  0
  5  4  1  0  0  0  0
  5  6  1  0  0  0  0
  6  7  1  0  0  0  0
  6  8  1  0  0  0  0
  8  9  2  0  0  0  0
  8 10  1  0  0  0  0
 10  5  1  0  0  0  0
 11 10  1  0  0  0  0
  2 11  2  0  0  0  0
 11 12  1  0  0  0  0
 12 13  1  0  0  0  0
 12 14  2  0  0  0  0
M  END
> <RowID>
1205

> <Original_SMILES>
CC1CSC2C(N)C(=O)N2C=1C(O)=O

> <Canonical_QSARr>
CC1CSC2C(N)C(=O)N2C=1C(O)=O

> <InChI_Code_QSARr>
InChI=1S/C8H10N2O3S/c1-3-2-14-7-4(9)6(11)10(7)5(3)8(12)13/h4,7H,2,9H2,1H3,(H,12,13)

> <InChI Key_QSARr>
NVIAYEIXYQCDAN-UHFFFAOYSA-N

> <Salt_Solvent>


> <Salt_Solvent_ID>
0

> <Number of connected components>
1

$$$$
Molecule_1206
  Mrv2316 01072400032D          

  8  7  0  0  0  0            999 V2000
    2.8875   -2.1434    0.0000 O   0  0  0  0  0  0  0  0  0  0  0  0
    2.4750   -1.4289    0.0000 S   0  0  0  0  0  0  0  0  0  0  0  0
    3.1895   -1.0164    0.0000 O   0  0  0  0  0  0  0  0  0  0  0  0
    1.7605   -1.8414    0.0000 O   0  0  0  0  0  0  0  0  0  0  0  0
    2.0625   -0.7145    0.0000 C   0  0  0  0  0  0  0  0  0  0  0  0
    1.2375   -0.7145    0.0000 C   0  0  0  0  0  0  0  0  0  0  0  0
    0.8250    0.0000    0.0000 C   0  0  0  0  0  0  0  0  0  0  0  0
    0.0000    0.0000    0.0000 S   0  0  0  0  0  0  0  0  0  0  0  0
  1  2  1  0  0  0  0
  2  3  2  0  0  0  0
  2  4  2  0  0  0  0
  2  5  1  0  0  0  0
  5  6  1  0  0  0  0
  6  7  1  0  0  0  0
  7  8  1  0  0  0  0
M  END
> <RowID>
1206

> <Original_SMILES>
[Na+].[O-]S(=O)(=O)CCCS

> <Canonical_QSARr>
OS(=O)(=O)CCCS

> <InChI_Code_QSARr>
InChI=1S/C3H8O3S2/c4-8(5,6)3-1-2-7/h7H,1-3H2,(H,4,5,6)

> <InChI Key_QSARr>
OBDVFOBWBHMJDG-UHFFFAOYSA-N

> <Salt_Solvent>
[Na+]

> <Salt_Solvent_ID>
110

> <Number of connected components>
2

$$$$
Molecule_1207
  Mrv2316 01072400032D          

 12 11  0  0  0  0            999 V2000
    1.2375   -0.7145    0.0000 C   0  0  0  0  0  0  0  0  0  0  0  0
    1.6500   -0.0000    0.0000 C   0  0  0  0  0  0  0  0  0  0  0  0
    2.4750   -0.0000    0.0000 O   0  0  0  0  0  0  0  0  0  0  0  0
    2.8875    0.7145    0.0000 C   0  0  0  0  0  0  0  0  0  0  0  0
    2.4750    1.4289    0.0000 O   0  0  0  0  0  0  0  0  0  0  0  0
    3.7125    0.7145    0.0000 C   0  0  0  0  0  0  0  0  0  0  0  0
    4.1250    1.4289    0.0000 O   0  0  0  0  0  0  0  0  0  0  0  0
    4.9500    1.4289    0.0000 C   0  0  0  0  0  0  0  0  0  0  0  0
    5.3625    2.1434    0.0000 C   0  0  0  0  0  0  0  0  0  0  0  0
    4.1250   -0.0000    0.0000 O   0  0  0  0  0  0  0  0  0  0  0  0
    4.9500   -0.0000    0.0000 C   0  0  0  0  0  0  0  0  0  0  0  0
    5.3625   -0.7145    0.0000 C   0  0  0  0  0  0  0  0  0  0  0  0
  1  2  1  0  0  0  0
  2  3  1  0  0  0  0
  3  4  1  0  0  0  0
  4  5  2  0  0  0  0
  4  6  1  0  0  0  0
  6  7  1  0  0  0  0
  7  8  1  0  0  0  0
  8  9  1  0  0  0  0
  6 10  1  0  0  0  0
 10 11  1  0  0  0  0
 11 12  1  0  0  0  0
M  END
> <RowID>
1207

> <Original_SMILES>
CCOC(=O)C(OCC)OCC

> <Canonical_QSARr>
CCOC(=O)C(OCC)OCC

> <InChI_Code_QSARr>
InChI=1S/C8H16O4/c1-4-10-7(9)8(11-5-2)12-6-3/h8H,4-6H2,1-3H3

> <InChI Key_QSARr>
XCLBIKIQSCTANZ-UHFFFAOYSA-N

> <Salt_Solvent>


> <Salt_Solvent_ID>
0

> <Number of connected components>
1

$$$$
Molecule_1208
  Mrv2316 01072400032D          

 20 20  0  0  0  0            999 V2000
    1.7521    2.4859    0.0000 O   0  5  0  0  0  0  0  0  0  0  0  0
    1.7521    3.3109    0.0000 N   0  3  0  0  0  0  0  0  0  0  0  0
    2.4666    3.7234    0.0000 O   0  0  0  0  0  0  0  0  0  0  0  0
    1.0376    3.7234    0.0000 C   0  0  0  0  0  0  0  0  0  0  0  0
    1.0376    4.5484    0.0000 C   0  0  0  0  0  0  0  0  0  0  0  0
    0.3231    4.9609    0.0000 C   0  0  0  0  0  0  0  0  0  0  0  0
    0.3231    5.7859    0.0000 N   0  0  0  0  0  0  0  0  0  0  0  0
   -0.3913    6.1984    0.0000 C   0  0  0  0  0  0  0  0  0  0  0  0
   -0.3913    7.0234    0.0000 C   0  0  0  0  0  0  0  0  0  0  0  0
   -1.1058    7.4359    0.0000 O   0  0  0  0  0  0  0  0  0  0  0  0
    1.0376    6.1984    0.0000 C   0  0  0  0  0  0  0  0  0  0  0  0
    1.0376    7.0234    0.0000 C   0  0  0  0  0  0  0  0  0  0  0  0
    1.7521    7.4359    0.0000 O   0  0  0  0  0  0  0  0  0  0  0  0
   -0.3913    4.5484    0.0000 C   0  0  0  0  0  0  0  0  0  0  0  0
   -0.3913    3.7234    0.0000 C   0  0  0  0  0  0  0  0  0  0  0  0
    0.3231    3.3109    0.0000 C   0  0  0  0  0  0  0  0  0  0  0  0
    0.3231    2.4859    0.0000 N   0  0  0  0  0  0  0  0  0  0  0  0
    1.0376    2.0734    0.0000 C   0  0  0  0  0  0  0  0  0  0  0  0
    1.0376    1.2484    0.0000 C   0  0  0  0  0  0  0  0  0  0  0  0
    1.7521    0.8359    0.0000 O   0  0  0  0  0  0  0  0  0  0  0  0
  1  2  1  0  0  0  0
  2  3  2  0  0  0  0
  2  4  1  0  0  0  0
  5  4  1  0  0  0  0
  6  5  2  0  0  0  0
  6  7  1  0  0  0  0
  7  8  1  0  0  0  0
  8  9  1  0  0  0  0
  9 10  1  0  0  0  0
  7 11  1  0  0  0  0
 11 12  1  0  0  0  0
 12 13  1  0  0  0  0
 14  6  1  0  0  0  0
 15 14  2  0  0  0  0
 16 15  1  0  0  0  0
  4 16  2  0  0  0  0
 16 17  1  0  0  0  0
 17 18  1  0  0  0  0
 18 19  1  0  0  0  0
 19 20  1  0  0  0  0
M  CHG  2   1  -1   2   1
M  END
> <RowID>
1208

> <Original_SMILES>
[O-][N+](=O)C1C=C(C=CC=1NCCO)N(CCO)CCO

> <Canonical_QSARr>
[O-][N+](=O)C1C=C(C=CC=1NCCO)N(CCO)CCO

> <InChI_Code_QSARr>
InChI=1S/C12H19N3O5/c16-6-3-13-11-2-1-10(9-12(11)15(19)20)14(4-7-17)5-8-18/h1-2,9,13,16-18H,3-8H2

> <InChI Key_QSARr>
MIWUTEVJIISHCP-UHFFFAOYSA-N

> <Salt_Solvent>


> <Salt_Solvent_ID>
0

> <Number of connected components>
1

$$$$
Molecule_1209
  Mrv2316 01072400032D          

 24 25  0  0  0  0            999 V2000
    3.8403   -2.2172    0.0000 O   0  0  0  0  0  0  0  0  0  0  0  0
    3.1258   -2.6297    0.0000 S   0  0  0  0  0  0  0  0  0  0  0  0
    3.5383   -3.3442    0.0000 O   0  0  0  0  0  0  0  0  0  0  0  0
    2.7133   -1.9152    0.0000 O   0  0  0  0  0  0  0  0  0  0  0  0
    2.4113   -3.0422    0.0000 C   0  0  0  0  0  0  0  0  0  0  0  0
    1.6969   -2.6297    0.0000 C   0  0  0  0  0  0  0  0  0  0  0  0
    1.6969   -1.8047    0.0000 C   0  0  0  0  0  0  0  0  0  0  0  0
    2.4113   -1.3922    0.0000 C   0  0  0  0  0  0  0  0  0  0  0  0
    2.4113   -0.5672    0.0000 C   0  0  0  0  0  0  0  0  0  0  0  0
    3.1258   -0.1547    0.0000 C   0  0  0  0  0  0  0  0  0  0  0  0
    3.8403   -0.5672    0.0000 S   0  0  0  0  0  0  0  0  0  0  0  0
    4.5547   -0.9797    0.0000 O   0  0  0  0  0  0  0  0  0  0  0  0
    4.2528    0.1473    0.0000 O   0  0  0  0  0  0  0  0  0  0  0  0
    3.4278   -1.2817    0.0000 O   0  0  0  0  0  0  0  0  0  0  0  0
    3.1258    0.6703    0.0000 C   0  0  0  0  0  0  0  0  0  0  0  0
    2.4113    1.0828    0.0000 C   0  0  0  0  0  0  0  0  0  0  0  0
    2.4113    1.9078    0.0000 N   0  0  0  0  0  0  0  0  0  0  0  0
    1.6969    0.6703    0.0000 C   0  0  0  0  0  0  0  0  0  0  0  0
    1.6969   -0.1547    0.0000 C   0  0  0  0  0  0  0  0  0  0  0  0
    0.9824   -3.0422    0.0000 C   0  0  0  0  0  0  0  0  0  0  0  0
    0.9824   -3.8672    0.0000 C   0  0  0  0  0  0  0  0  0  0  0  0
    1.6969   -4.2797    0.0000 C   0  0  0  0  0  0  0  0  0  0  0  0
    1.6969   -5.1047    0.0000 N   0  0  0  0  0  0  0  0  0  0  0  0
    2.4113   -3.8672    0.0000 C   0  0  0  0  0  0  0  0  0  0  0  0
  1  2  1  0  0  0  0
  2  3  2  0  0  0  0
  2  4  2  0  0  0  0
  2  5  1  0  0  0  0
  6  5  1  0  0  0  0
  7  6  1  4  0  0  0
  7  8  2  0  0  0  0
  8  9  1  0  0  0  0
 10  9  2  0  0  0  0
 10 11  1  0  0  0  0
 11 12  1  0  0  0  0
 11 13  2  0  0  0  0
 11 14  2  0  0  0  0
 15 10  1  0  0  0  0
 16 15  2  0  0  0  0
 16 17  1  0  0  0  0
 18 16  1  0  0  0  0
 19 18  2  0  0  0  0
  9 19  1  0  0  0  0
 20  6  2  0  0  0  0
 21 20  1  0  0  0  0
 22 21  2  0  0  0  0
 22 23  1  0  0  0  0
 24 22  1  0  0  0  0
  5 24  2  0  0  0  0
M  END
> <RowID>
1209

> <Original_SMILES>
[Na+].[Na+].NC1=CC(=C(C=CC2C=CC(N)=CC=2S([O-])(=O)=O)C=C1)S([O-])(=O)=O

> <Canonical_QSARr>
NC1=CC(=C(C=CC2=CC=C(N)C=C2S(O)(=O)=O)C=C1)S(O)(=O)=O

> <InChI_Code_QSARr>
InChI=1S/C14H14N2O6S2/c15-11-5-3-9(13(7-11)23(17,18)19)1-2-10-4-6-12(16)8-14(10)24(20,21)22/h1-8H,15-16H2,(H,17,18,19)(H,20,21,22)

> <InChI Key_QSARr>
REJHVSOVQBJEBF-UHFFFAOYSA-N

> <Salt_Solvent>
[Na+]

> <Salt_Solvent_ID>
110

> <Number of connected components>
3

$$$$
Molecule_1210
  Mrv2316 01072400032D          

 12 12  0  0  0  0            999 V2000
    2.2625   -0.6188    0.0000 C   0  0  0  0  0  0  0  0  0  0  0  0
    1.5480   -0.2063    0.0000 C   0  0  0  0  0  0  0  0  0  0  0  0
    1.5480    0.6187    0.0000 N   0  0  0  0  0  0  0  0  0  0  0  0
    2.2625    1.0312    0.0000 C   0  0  0  0  0  0  0  0  0  0  0  0
    2.2625    1.8562    0.0000 C   0  0  0  0  0  0  0  0  0  0  0  0
    0.8335    1.0312    0.0000 C   0  0  0  0  0  0  0  0  0  0  0  0
    0.8335    1.8563    0.0000 C   0  0  0  0  0  0  0  0  0  0  0  0
    0.1191    2.2688    0.0000 C   0  0  0  0  0  0  0  0  0  0  0  0
    0.1191    3.0938    0.0000 O   0  0  0  0  0  0  0  0  0  0  0  0
   -0.5954    1.8563    0.0000 C   0  0  0  0  0  0  0  0  0  0  0  0
   -0.5954    1.0313    0.0000 C   0  0  0  0  0  0  0  0  0  0  0  0
    0.1191    0.6188    0.0000 C   0  0  0  0  0  0  0  0  0  0  0  0
  1  2  1  0  0  0  0
  2  3  1  0  0  0  0
  3  4  1  0  0  0  0
  4  5  1  0  0  0  0
  3  6  1  0  0  0  0
  7  6  1  0  0  0  0
  8  7  2  0  0  0  0
  8  9  1  0  0  0  0
 10  8  1  0  0  0  0
 11 10  2  0  0  0  0
 12 11  1  0  0  0  0
  6 12  2  0  0  0  0
M  END
> <RowID>
1210

> <Original_SMILES>
CCN(CC)C1C=C(O)C=CC=1

> <Canonical_QSARr>
CCN(CC)C1C=C(O)C=CC=1

> <InChI_Code_QSARr>
InChI=1S/C10H15NO/c1-3-11(4-2)9-6-5-7-10(12)8-9/h5-8,12H,3-4H2,1-2H3

> <InChI Key_QSARr>
WAVOOWVINKGEHS-UHFFFAOYSA-N

> <Salt_Solvent>


> <Salt_Solvent_ID>
0

> <Number of connected components>
1

$$$$
Molecule_1211
  Mrv2316 01072400032D          

 34 33  0  0  0  0            999 V2000
   17.8480   11.1296    0.0000 C   0  0  0  0  0  0  0  0  0  0  0  0
   18.5625   10.7171    0.0000 C   0  0  0  0  0  0  0  0  0  0  0  0
   19.2770   11.1296    0.0000 C   0  0  0  0  0  0  0  0  0  0  0  0
   19.9914   10.7171    0.0000 C   0  0  0  0  0  0  0  0  0  0  0  0
   20.7059   11.1296    0.0000 C   0  0  0  0  0  0  0  0  0  0  0  0
   21.4204   10.7171    0.0000 C   0  0  0  0  0  0  0  0  0  0  0  0
   22.1349   11.1296    0.0000 C   0  0  0  0  0  0  0  0  0  0  0  0
   22.8493   10.7171    0.0000 C   0  0  0  0  0  0  0  0  0  0  0  0
   23.5638   11.1296    0.0000 C   0  0  0  0  0  0  0  0  0  0  0  0
   24.2783   10.7171    0.0000 C   0  0  0  0  0  0  0  0  0  0  0  0
   24.9927   11.1296    0.0000 C   0  0  0  0  0  0  0  0  0  0  0  0
   25.7072   10.7171    0.0000 C   0  0  0  0  0  0  0  0  0  0  0  0
   26.4217   11.1296    0.0000 C   0  0  0  0  0  0  0  0  0  0  0  0
   27.1361   10.7171    0.0000 C   0  0  0  0  0  0  0  0  0  0  0  0
   27.8506   11.1296    0.0000 C   0  0  0  0  0  0  0  0  0  0  0  0
   28.5651   10.7171    0.0000 C   0  0  0  0  0  0  0  0  0  0  0  0
   29.2796   11.1296    0.0000 C   0  0  0  0  0  0  0  0  0  0  0  0
   29.9940   10.7171    0.0000 C   0  0  0  0  0  0  0  0  0  0  0  0
   29.9940    9.8921    0.0000 O   0  0  0  0  0  0  0  0  0  0  0  0
   30.7085   11.1296    0.0000 O   0  0  0  0  0  0  0  0  0  0  0  0
   31.4230   10.7171    0.0000 C   0  0  0  0  0  0  0  0  0  0  0  0
   32.1374   11.1296    0.0000 C   0  0  0  0  0  0  0  0  0  0  0  0
   32.8519   10.7171    0.0000 C   0  0  0  0  0  0  0  0  0  0  0  0
   33.5664   11.1296    0.0000 C   0  0  0  0  0  0  0  0  0  0  0  0
   34.2809   10.7171    0.0000 C   0  0  0  0  0  0  0  0  0  0  0  0
   34.9953   11.1296    0.0000 C   0  0  0  0  0  0  0  0  0  0  0  0
   35.7098   10.7171    0.0000 C   0  0  0  0  0  0  0  0  0  0  0  0
   36.4243   11.1296    0.0000 C   0  0  0  0  0  0  0  0  0  0  0  0
   37.1387   10.7171    0.0000 C   0  0  0  0  0  0  0  0  0  0  0  0
   37.8532   11.1296    0.0000 C   0  0  0  0  0  0  0  0  0  0  0  0
   38.5677   10.7171    0.0000 C   0  0  0  0  0  0  0  0  0  0  0  0
   39.2822   11.1296    0.0000 C   0  0  0  0  0  0  0  0  0  0  0  0
   39.9966   10.7171    0.0000 C   0  0  0  0  0  0  0  0  0  0  0  0
   40.7111   11.1296    0.0000 C   0  0  0  0  0  0  0  0  0  0  0  0
  1  2  1  0  0  0  0
  2  3  1  0  0  0  0
  3  4  1  0  0  0  0
  4  5  1  0  0  0  0
  5  6  1  0  0  0  0
  6  7  1  0  0  0  0
  7  8  1  0  0  0  0
  8  9  1  0  0  0  0
  9 10  1  0  0  0  0
 10 11  1  0  0  0  0
 11 12  1  0  0  0  0
 12 13  1  0  0  0  0
 13 14  1  0  0  0  0
 14 15  1  0  0  0  0
 15 16  1  0  0  0  0
 16 17  1  0  0  0  0
 17 18  1  0  0  0  0
 18 19  2  0  0  0  0
 18 20  1  0  0  0  0
 20 21  1  0  0  0  0
 21 22  1  0  0  0  0
 22 23  1  0  0  0  0
 23 24  1  0  0  0  0
 24 25  1  0  0  0  0
 25 26  1  0  0  0  0
 26 27  1  0  0  0  0
 27 28  1  0  0  0  0
 28 29  1  0  0  0  0
 29 30  1  0  0  0  0
 30 31  1  0  0  0  0
 31 32  1  0  0  0  0
 32 33  1  0  0  0  0
 33 34  1  0  0  0  0
M  END
> <RowID>
1211

> <Original_SMILES>
CCCCCCCCCCCCCCCCCC(=O)OCCCCCCCCCCCCCC

> <Canonical_QSARr>
CCCCCCCCCCCCCCCCCC(=O)OCCCCCCCCCCCCCC

> <InChI_Code_QSARr>
InChI=1S/C32H64O2/c1-3-5-7-9-11-13-15-17-18-19-20-22-24-26-28-30-32(33)34-31-29-27-25-23-21-16-14-12-10-8-6-4-2/h3-31H2,1-2H3

> <InChI Key_QSARr>
MHXBHWLGRWOABW-UHFFFAOYSA-N

> <Salt_Solvent>


> <Salt_Solvent_ID>
0

> <Number of connected components>
1

$$$$
Molecule_1213
  Mrv2316 01072400032D          

 26 27  0  0  0  0            999 V2000
    2.1434   -5.4260    0.0000 C   0  0  0  0  0  0  0  0  0  0  0  0
    1.4289   -5.0135    0.0000 C   0  0  0  0  0  0  0  0  0  0  0  0
    0.7145   -5.4260    0.0000 O   0  0  0  0  0  0  0  0  0  0  0  0
    1.4289   -4.1885    0.0000 C   0  0  0  0  0  0  0  0  0  0  0  0
    0.7145   -3.7760    0.0000 N   0  0  0  0  0  0  0  0  0  0  0  0
    0.7145   -2.9510    0.0000 N   0  0  0  0  0  0  0  0  0  0  0  0
    0.0000   -2.5385    0.0000 C   0  0  0  0  0  0  0  0  0  0  0  0
    0.0000   -1.7135    0.0000 C   0  0  0  0  0  0  0  0  0  0  0  0
   -0.7145   -1.3010    0.0000 C   0  0  0  0  0  0  0  0  0  0  0  0
   -1.4289   -1.7135    0.0000 C   0  0  0  0  0  0  0  0  0  0  0  0
   -2.1434   -1.3010    0.0000 Cl  0  0  0  0  0  0  0  0  0  0  0  0
   -1.4289   -2.5385    0.0000 C   0  0  0  0  0  0  0  0  0  0  0  0
   -0.7145   -2.9510    0.0000 C   0  0  0  0  0  0  0  0  0  0  0  0
   -0.7145   -3.7760    0.0000 N   0  3  0  0  0  0  0  0  0  0  0  0
    0.0000   -4.1885    0.0000 O   0  5  0  0  0  0  0  0  0  0  0  0
   -1.4289   -4.1885    0.0000 O   0  0  0  0  0  0  0  0  0  0  0  0
    2.1434   -3.7760    0.0000 C   0  0  0  0  0  0  0  0  0  0  0  0
    2.1434   -2.9510    0.0000 O   0  0  0  0  0  0  0  0  0  0  0  0
    2.8579   -4.1885    0.0000 N   0  0  0  0  0  0  0  0  0  0  0  0
    3.5724   -3.7760    0.0000 C   0  0  0  0  0  0  0  0  0  0  0  0
    4.2868   -4.1885    0.0000 C   0  0  0  0  0  0  0  0  0  0  0  0
    5.0013   -3.7760    0.0000 C   0  0  0  0  0  0  0  0  0  0  0  0
    5.0013   -2.9510    0.0000 C   0  0  0  0  0  0  0  0  0  0  0  0
    4.2868   -2.5385    0.0000 C   0  0  0  0  0  0  0  0  0  0  0  0
    3.5724   -2.9510    0.0000 C   0  0  0  0  0  0  0  0  0  0  0  0
    2.8579   -2.5385    0.0000 Cl  0  0  0  0  0  0  0  0  0  0  0  0
  1  2  1  0  0  0  0
  2  3  2  0  0  0  0
  2  4  1  0  0  0  0
  5  4  1  4  0  0  0
  5  6  2  0  0  0  0
  6  7  1  0  0  0  0
  8  7  2  0  0  0  0
  9  8  1  0  0  0  0
 10  9  2  0  0  0  0
 10 11  1  0  0  0  0
 12 10  1  0  0  0  0
 13 12  2  0  0  0  0
  7 13  1  0  0  0  0
 13 14  1  0  0  0  0
 14 15  1  0  0  0  0
 14 16  2  0  0  0  0
  4 17  1  0  0  0  0
 17 18  2  0  0  0  0
 17 19  1  0  0  0  0
 19 20  1  0  0  0  0
 21 20  2  0  0  0  0
 22 21  1  0  0  0  0
 23 22  2  0  0  0  0
 24 23  1  0  0  0  0
 25 24  2  0  0  0  0
 20 25  1  0  0  0  0
 25 26  1  0  0  0  0
M  CHG  2  14   1  15  -1
M  END
> <RowID>
1213

> <Original_SMILES>
CC(=O)C(N=NC1=CC=C(Cl)C=C1[N+]([O-])=O)C(=O)NC1=CC=CC=C1Cl

> <Canonical_QSARr>
CC(=O)C(N=NC1=CC=C(Cl)C=C1[N+]([O-])=O)C(=O)NC1=CC=CC=C1Cl

> <InChI_Code_QSARr>
InChI=1S/C16H12Cl2N4O4/c1-9(23)15(16(24)19-12-5-3-2-4-11(12)18)21-20-13-7-6-10(17)8-14(13)22(25)26/h2-8,15H,1H3,(H,19,24)

> <InChI Key_QSARr>
QTSNFLIDNYOATQ-UHFFFAOYSA-N

> <Salt_Solvent>


> <Salt_Solvent_ID>
0

> <Number of connected components>
1

$$$$
Molecule_1215
  Mrv2316 01072400032D          

 16 15  0  0  0  0            999 V2000
    1.6500   -0.0000    0.0000 C   0  0  0  0  0  0  0  0  0  0  0  0
    0.8250   -0.0000    0.0000 N   0  3  0  0  0  0  0  0  0  0  0  0
    0.8250    0.8250    0.0000 C   0  0  0  0  0  0  0  0  0  0  0  0
    0.1105    1.2375    0.0000 C   0  0  0  0  0  0  0  0  0  0  0  0
    0.1105    2.0625    0.0000 O   0  0  0  0  0  0  0  0  0  0  0  0
    0.8250   -0.8250    0.0000 C   0  0  0  0  0  0  0  0  0  0  0  0
    1.5395   -1.2375    0.0000 C   0  0  0  0  0  0  0  0  0  0  0  0
    1.5395   -2.0625    0.0000 C   0  0  0  0  0  0  0  0  0  0  0  0
    2.2539   -2.4750    0.0000 N   0  3  0  0  0  0  0  0  0  0  0  0
    2.9684   -2.8875    0.0000 C   0  0  0  0  0  0  0  0  0  0  0  0
    2.9684   -3.7125    0.0000 C   0  0  0  0  0  0  0  0  0  0  0  0
    3.6829   -4.1250    0.0000 O   0  0  0  0  0  0  0  0  0  0  0  0
    1.8414   -3.1895    0.0000 C   0  0  0  0  0  0  0  0  0  0  0  0
    2.6664   -1.7605    0.0000 C   0  0  0  0  0  0  0  0  0  0  0  0
    2.2539   -0.8250    0.0000 O   0  0  0  0  0  0  0  0  0  0  0  0
   -0.0000   -0.0000    0.0000 C   0  0  0  0  0  0  0  0  0  0  0  0
  1  2  1  0  0  0  0
  2  3  1  0  0  0  0
  3  4  1  0  0  0  0
  4  5  1  0  0  0  0
  2  6  1  0  0  0  0
  6  7  1  0  0  0  0
  7  8  1  0  0  0  0
  8  9  1  0  0  0  0
  9 10  1  0  0  0  0
 10 11  1  0  0  0  0
 11 12  1  0  0  0  0
  9 13  1  0  0  0  0
  9 14  1  0  0  0  0
  7 15  1  0  0  0  0
  2 16  1  0  0  0  0
M  CHG  2   2   1   9   1
M  END
> <RowID>
1215

> <Original_SMILES>
[Cl-].[Cl-].C[N+](C)(CC(O)C[N+](C)(C)CCO)CCO

> <Canonical_QSARr>
C[N+](C)(CC(O)C[N+](C)(C)CCO)CCO

> <InChI_Code_QSARr>
InChI=1S/C11H28N2O3/c1-12(2,5-7-14)9-11(16)10-13(3,4)6-8-15/h11,14-16H,5-10H2,1-4H3/q+2

> <InChI Key_QSARr>
HFXVAKJGXLSTHX-UHFFFAOYSA-N

> <Salt_Solvent>
[Cl-]

> <Salt_Solvent_ID>
170

> <Number of connected components>
3

$$$$
Molecule_1216
  Mrv2316 01072400032D          

  8  7  0  0  0  0            999 V2000
    1.0461    1.4289    0.0000 C   0  0  0  0  0  0  0  0  0  0  0  0
    1.7605    1.8414    0.0000 O   0  0  0  0  0  0  0  0  0  0  0  0
    2.4750    1.4289    0.0000 C   0  0  0  0  0  0  0  0  0  0  0  0
    3.1895    1.8414    0.0000 C   0  0  0  0  0  0  0  0  0  0  0  0
    3.9039    1.4289    0.0000 O   0  0  0  0  0  0  0  0  0  0  0  0
    4.6184    1.8414    0.0000 C   0  0  0  0  0  0  0  0  0  0  0  0
    5.3329    1.4289    0.0000 C   0  0  0  0  0  0  0  0  0  0  0  0
    6.0474    1.8414    0.0000 O   0  0  0  0  0  0  0  0  0  0  0  0
  1  2  1  0  0  0  0
  2  3  1  0  0  0  0
  3  4  1  0  0  0  0
  4  5  1  0  0  0  0
  5  6  1  0  0  0  0
  6  7  1  0  0  0  0
  7  8  1  0  0  0  0
M  END
> <RowID>
1216

> <Original_SMILES>
COCCOCCO

> <Canonical_QSARr>
COCCOCCO

> <InChI_Code_QSARr>
InChI=1S/C5H12O3/c1-7-4-5-8-3-2-6/h6H,2-5H2,1H3

> <InChI Key_QSARr>
SBASXUCJHJRPEV-UHFFFAOYSA-N

> <Salt_Solvent>


> <Salt_Solvent_ID>
0

> <Number of connected components>
1

$$$$
Molecule_1217
  Mrv2316 01072400032D          

  9  8  0  0  0  0            999 V2000
    1.7605    1.8414    0.0000 C   0  0  0  0  0  0  0  0  0  0  0  0
    2.4750    1.4289    0.0000 C   0  0  0  0  0  0  0  0  0  0  0  0
    2.4750    0.6039    0.0000 C   0  0  0  0  0  0  0  0  0  0  0  0
    3.1895    1.8414    0.0000 C   0  0  0  0  0  0  0  0  0  0  0  0
    3.9039    1.4289    0.0000 C   0  0  0  0  0  0  0  0  0  0  0  0
    4.6184    1.8414    0.0000 O   0  0  0  0  0  0  0  0  0  0  0  0
    5.3329    1.4289    0.0000 C   0  0  0  0  0  0  0  0  0  0  0  0
    6.0474    1.8414    0.0000 C   0  0  0  0  0  0  0  0  0  0  0  0
    5.3329    0.6039    0.0000 O   0  0  0  0  0  0  0  0  0  0  0  0
  1  2  1  0  0  0  0
  2  3  1  0  0  0  0
  2  4  1  0  0  0  0
  4  5  1  0  0  0  0
  5  6  1  0  0  0  0
  6  7  1  0  0  0  0
  7  8  1  0  0  0  0
  7  9  2  0  0  0  0
M  END
> <RowID>
1217

> <Original_SMILES>
CC(C)CCOC(C)=O

> <Canonical_QSARr>
CC(C)CCOC(C)=O

> <InChI_Code_QSARr>
InChI=1S/C7H14O2/c1-6(2)4-5-9-7(3)8/h6H,4-5H2,1-3H3

> <InChI Key_QSARr>
MLFHJEHSLIIPHL-UHFFFAOYSA-N

> <Salt_Solvent>


> <Salt_Solvent_ID>
0

> <Number of connected components>
1

$$$$
Molecule_1218
  Mrv2316 01072400032D          

 14 14  0  0  0  0            999 V2000
    1.1227   -2.4161    0.0000 C   0  0  0  0  0  0  0  0  0  0  0  0
    1.1227   -1.5911    0.0000 C   0  0  0  0  0  0  0  0  0  0  0  0
    1.9477   -1.5911    0.0000 C   0  0  0  0  0  0  0  0  0  0  0  0
    0.2977   -1.5911    0.0000 C   0  0  0  0  0  0  0  0  0  0  0  0
    1.1227   -0.7661    0.0000 C   0  0  0  0  0  0  0  0  0  0  0  0
    1.8372   -0.3536    0.0000 C   0  0  0  0  0  0  0  0  0  0  0  0
    1.8372    0.4714    0.0000 C   0  0  0  0  0  0  0  0  0  0  0  0
    1.1227    0.8839    0.0000 C   0  0  0  0  0  0  0  0  0  0  0  0
    1.1227    1.7089    0.0000 C   0  0  0  0  0  0  0  0  0  0  0  0
    0.4083    2.1214    0.0000 C   0  0  0  0  0  0  0  0  0  0  0  0
    0.4083    2.9464    0.0000 C   0  0  0  0  0  0  0  0  0  0  0  0
   -0.3062    3.3589    0.0000 O   0  0  0  0  0  0  0  0  0  0  0  0
    0.4083    0.4714    0.0000 C   0  0  0  0  0  0  0  0  0  0  0  0
    0.4083   -0.3536    0.0000 C   0  0  0  0  0  0  0  0  0  0  0  0
  1  2  1  0  0  0  0
  2  3  1  0  0  0  0
  2  4  1  0  0  0  0
  2  5  1  0  0  0  0
  6  5  2  0  0  0  0
  7  6  1  0  0  0  0
  8  7  2  0  0  0  0
  8  9  1  0  0  0  0
  9 10  1  0  0  0  0
 10 11  1  0  0  0  0
 11 12  2  0  0  0  0
 13  8  1  0  0  0  0
 14 13  2  0  0  0  0
  5 14  1  0  0  0  0
M  END
> <RowID>
1218

> <Original_SMILES>
CC(C)(C)C1=CC=C(CCC=O)C=C1

> <Canonical_QSARr>
CC(C)(C)C1=CC=C(CCC=O)C=C1

> <InChI_Code_QSARr>
InChI=1S/C13H18O/c1-13(2,3)12-8-6-11(7-9-12)5-4-10-14/h6-10H,4-5H2,1-3H3

> <InChI Key_QSARr>
FZJUFJKVIYFBSY-UHFFFAOYSA-N

> <Salt_Solvent>


> <Salt_Solvent_ID>
0

> <Number of connected components>
1

$$$$
Molecule_1219
  Mrv2316 01072400032D          

  9  9  0  0  0  0            999 V2000
    1.4289    2.4750    0.0000 C   0  0  0  0  0  0  0  0  0  0  0  0
    0.7145    2.0625    0.0000 C   0  0  0  0  0  0  0  0  0  0  0  0
   -0.0000    2.4750    0.0000 O   0  0  0  0  0  0  0  0  0  0  0  0
    0.7145    1.2375    0.0000 N   0  0  0  0  0  0  0  0  0  0  0  0
   -0.0000    0.8250    0.0000 C   0  0  0  0  0  0  0  0  0  0  0  0
   -0.0000   -0.0000    0.0000 C   0  0  0  0  0  0  0  0  0  0  0  0
    0.7145   -0.4125    0.0000 O   0  0  0  0  0  0  0  0  0  0  0  0
    1.4289    0.0000    0.0000 C   0  0  0  0  0  0  0  0  0  0  0  0
    1.4289    0.8250    0.0000 C   0  0  0  0  0  0  0  0  0  0  0  0
  1  2  1  0  0  0  0
  2  3  2  0  0  0  0
  2  4  1  0  0  0  0
  5  4  1  0  0  0  0
  6  5  1  0  0  0  0
  7  6  1  0  0  0  0
  8  7  1  0  0  0  0
  9  8  1  0  0  0  0
  4  9  1  0  0  0  0
M  END
> <RowID>
1219

> <Original_SMILES>
CC(=O)N1CCOCC1

> <Canonical_QSARr>
CC(=O)N1CCOCC1

> <InChI_Code_QSARr>
InChI=1S/C6H11NO2/c1-6(8)7-2-4-9-5-3-7/h2-5H2,1H3

> <InChI Key_QSARr>
KYWXRBNOYGGPIZ-UHFFFAOYSA-N

> <Salt_Solvent>


> <Salt_Solvent_ID>
0

> <Number of connected components>
1

$$$$
Molecule_1220
  Mrv2316 01072400032D          

 22 23  0  0  0  0            999 V2000
    1.4289   -2.8875    0.0000 C   0  0  0  0  0  0  0  0  0  0  0  0
    1.4289   -3.7125    0.0000 N   0  0  0  0  0  0  0  0  0  0  0  0
    0.7145   -4.1250    0.0000 C   0  0  0  0  0  0  0  0  0  0  0  0
   -0.0000   -3.7125    0.0000 C   0  0  0  0  0  0  0  0  0  0  0  0
   -0.7145   -4.1250    0.0000 C   0  0  0  0  0  0  0  0  0  0  0  0
   -0.7145   -4.9500    0.0000 C   0  0  0  0  0  0  0  0  0  0  0  0
   -0.0000   -5.3625    0.0000 C   0  0  0  0  0  0  0  0  0  0  0  0
    0.7145   -4.9500    0.0000 C   0  0  0  0  0  0  0  0  0  0  0  0
    2.1434   -4.1250    0.0000 C   0  0  0  0  0  0  0  0  0  0  0  0
    2.1434   -4.9500    0.0000 S   0  0  0  0  0  0  0  0  0  0  0  0
    2.8579   -3.7125    0.0000 S   0  0  0  0  0  0  0  0  0  0  0  0
    3.5723   -4.1250    0.0000 S   0  0  0  0  0  0  0  0  0  0  0  0
    4.2868   -3.7125    0.0000 C   0  0  0  0  0  0  0  0  0  0  0  0
    4.2868   -2.8875    0.0000 S   0  0  0  0  0  0  0  0  0  0  0  0
    5.0013   -4.1250    0.0000 N   0  0  0  0  0  0  0  0  0  0  0  0
    5.0013   -4.9500    0.0000 C   0  0  0  0  0  0  0  0  0  0  0  0
    5.7158   -3.7125    0.0000 C   0  0  0  0  0  0  0  0  0  0  0  0
    6.4302   -4.1250    0.0000 C   0  0  0  0  0  0  0  0  0  0  0  0
    7.1447   -3.7125    0.0000 C   0  0  0  0  0  0  0  0  0  0  0  0
    7.1447   -2.8875    0.0000 C   0  0  0  0  0  0  0  0  0  0  0  0
    6.4302   -2.4750    0.0000 C   0  0  0  0  0  0  0  0  0  0  0  0
    5.7158   -2.8875    0.0000 C   0  0  0  0  0  0  0  0  0  0  0  0
  1  2  1  0  0  0  0
  2  3  1  0  0  0  0
  4  3  1  0  0  0  0
  5  4  2  0  0  0  0
  6  5  1  0  0  0  0
  7  6  2  0  0  0  0
  8  7  1  0  0  0  0
  3  8  2  0  0  0  0
  2  9  1  0  0  0  0
  9 10  2  0  0  0  0
  9 11  1  0  0  0  0
 11 12  1  0  0  0  0
 12 13  1  0  0  0  0
 13 14  2  0  0  0  0
 13 15  1  0  0  0  0
 15 16  1  0  0  0  0
 15 17  1  0  0  0  0
 18 17  1  0  0  0  0
 19 18  2  0  0  0  0
 20 19  1  0  0  0  0
 21 20  2  0  0  0  0
 22 21  1  0  0  0  0
 17 22  2  0  0  0  0
M  END
> <RowID>
1220

> <Original_SMILES>
CN(C1C=CC=CC=1)C(=S)SSC(=S)N(C)C1C=CC=CC=1

> <Canonical_QSARr>
CN(C1C=CC=CC=1)C(=S)SSC(=S)N(C)C1C=CC=CC=1

> <InChI_Code_QSARr>
InChI=1S/C16H16N2S4/c1-17(13-9-5-3-6-10-13)15(19)21-22-16(20)18(2)14-11-7-4-8-12-14/h3-12H,1-2H3

> <InChI Key_QSARr>
RDQQCSOIXMZZQR-UHFFFAOYSA-N

> <Salt_Solvent>


> <Salt_Solvent_ID>
0

> <Number of connected components>
1

$$$$
Molecule_1221
  Mrv2316 01072400032D          

 27 26  0  0  0  0            999 V2000
    3.2408   -3.0789    0.0000 O   0  0  0  0  0  0  0  0  0  0  0  0
    2.5263   -2.6664    0.0000 C   0  0  0  0  0  0  0  0  0  0  0  0
    2.5263   -1.8414    0.0000 O   0  0  0  0  0  0  0  0  0  0  0  0
    1.8118   -3.0789    0.0000 C   0  0  0  0  0  0  0  0  0  0  0  0
    1.0974   -2.6664    0.0000 N   0  0  0  0  0  0  0  0  0  0  0  0
    0.3829   -3.0789    0.0000 C   0  0  0  0  0  0  0  0  0  0  0  0
   -0.3316   -2.6664    0.0000 C   0  0  0  0  0  0  0  0  0  0  0  0
   -1.0460   -3.0789    0.0000 N   0  0  0  0  0  0  0  0  0  0  0  0
   -1.0460   -3.9039    0.0000 C   0  0  0  0  0  0  0  0  0  0  0  0
   -0.3316   -4.3164    0.0000 C   0  0  0  0  0  0  0  0  0  0  0  0
    0.3829   -3.9039    0.0000 O   0  0  0  0  0  0  0  0  0  0  0  0
   -0.3316   -5.1414    0.0000 O   0  0  0  0  0  0  0  0  0  0  0  0
   -1.7605   -2.6664    0.0000 C   0  0  0  0  0  0  0  0  0  0  0  0
   -2.4750   -3.0789    0.0000 C   0  0  0  0  0  0  0  0  0  0  0  0
   -3.1895   -2.6664    0.0000 N   0  0  0  0  0  0  0  0  0  0  0  0
   -3.9039   -3.0789    0.0000 C   0  0  0  0  0  0  0  0  0  0  0  0
   -4.6184   -2.6664    0.0000 C   0  0  0  0  0  0  0  0  0  0  0  0
   -5.3329   -3.0789    0.0000 O   0  0  0  0  0  0  0  0  0  0  0  0
   -4.6184   -1.8414    0.0000 O   0  0  0  0  0  0  0  0  0  0  0  0
   -3.1895   -1.8414    0.0000 C   0  0  0  0  0  0  0  0  0  0  0  0
   -2.4750   -1.4289    0.0000 C   0  0  0  0  0  0  0  0  0  0  0  0
   -2.4750   -0.6039    0.0000 O   0  0  0  0  0  0  0  0  0  0  0  0
   -1.7605   -1.8414    0.0000 O   0  0  0  0  0  0  0  0  0  0  0  0
    1.0974   -1.8414    0.0000 C   0  0  0  0  0  0  0  0  0  0  0  0
    0.3829   -1.4289    0.0000 C   0  0  0  0  0  0  0  0  0  0  0  0
   -0.3316   -1.8414    0.0000 O   0  0  0  0  0  0  0  0  0  0  0  0
    0.3829   -0.6039    0.0000 O   0  0  0  0  0  0  0  0  0  0  0  0
  1  2  1  0  0  0  0
  2  3  2  0  0  0  0
  2  4  1  0  0  0  0
  4  5  1  0  0  0  0
  5  6  1  0  0  0  0
  6  7  1  0  0  0  0
  7  8  1  0  0  0  0
  8  9  1  0  0  0  0
  9 10  1  0  0  0  0
 10 11  1  0  0  0  0
 10 12  2  0  0  0  0
  8 13  1  0  0  0  0
 13 14  1  0  0  0  0
 14 15  1  0  0  0  0
 15 16  1  0  0  0  0
 16 17  1  0  0  0  0
 17 18  2  0  0  0  0
 17 19  1  0  0  0  0
 15 20  1  0  0  0  0
 20 21  1  0  0  0  0
 21 22  2  0  0  0  0
 21 23  1  0  0  0  0
  5 24  1  0  0  0  0
 24 25  1  0  0  0  0
 25 26  1  0  0  0  0
 25 27  2  0  0  0  0
M  END
> <RowID>
1221

> <Original_SMILES>
[Na+].[Na+].[Na+].[O-]C(=O)CN(CCN(CC([O-])=O)CC([O-])=O)CCN(CC(O)=O)CC(O)=O

> <Canonical_QSARr>
OC(=O)CN(CCN(CC(O)=O)CC(O)=O)CCN(CC(O)=O)CC(O)=O

> <InChI_Code_QSARr>
InChI=1S/C14H23N3O10/c18-10(19)5-15(1-3-16(6-11(20)21)7-12(22)23)2-4-17(8-13(24)25)9-14(26)27/h1-9H2,(H,18,19)(H,20,21)(H,22,23)(H,24,25)(H,26,27)

> <InChI Key_QSARr>
QPCDCPDFJACHGM-UHFFFAOYSA-N

> <Salt_Solvent>
[Na+]

> <Salt_Solvent_ID>
110

> <Number of connected components>
4

$$$$
Molecule_1222
  Mrv2316 01072400032D          

 10 10  0  0  0  0            999 V2000
   -0.0000   -0.8250    0.0000 C   0  0  0  0  0  0  0  0  0  0  0  0
    0.7145   -0.4125    0.0000 C   0  0  0  0  0  0  0  0  0  0  0  0
    1.4289   -0.8250    0.0000 C   0  0  0  0  0  0  0  0  0  0  0  0
    0.7145    0.4125    0.0000 C   0  0  0  0  0  0  0  0  0  0  0  0
    1.4289    0.8250    0.0000 C   0  0  0  0  0  0  0  0  0  0  0  0
    1.4289    1.6500    0.0000 C   0  0  0  0  0  0  0  0  0  0  0  0
    0.7145    2.0625    0.0000 C   0  0  0  0  0  0  0  0  0  0  0  0
    0.7145    2.8875    0.0000 C   0  0  0  0  0  0  0  0  0  0  0  0
   -0.0000    1.6500    0.0000 C   0  0  0  0  0  0  0  0  0  0  0  0
   -0.0000    0.8250    0.0000 C   0  0  0  0  0  0  0  0  0  0  0  0
  1  2  1  0  0  0  0
  2  3  1  0  0  0  0
  2  4  2  0  0  0  0
  5  4  1  0  0  0  0
  6  5  1  0  0  0  0
  7  6  2  0  0  0  0
  7  8  1  0  0  0  0
  9  7  1  0  0  0  0
 10  9  1  0  0  0  0
  4 10  1  0  0  0  0
M  END
> <RowID>
1222

> <Original_SMILES>
CC(C)=C1CC=C(C)CC1

> <Canonical_QSARr>
CC(C)=C1CC=C(C)CC1

> <InChI_Code_QSARr>
InChI=1S/C10H16/c1-8(2)10-6-4-9(3)5-7-10/h4H,5-7H2,1-3H3

> <InChI Key_QSARr>
MOYAFQVGZZPNRA-UHFFFAOYSA-N

> <Salt_Solvent>


> <Salt_Solvent_ID>
0

> <Number of connected components>
1

$$$$
Molecule_1223
  Mrv2316 01072400032D          

 26 27  0  0  0  0            999 V2000
    2.1434   -5.4260    0.0000 C   0  0  0  0  0  0  0  0  0  0  0  0
    1.4289   -5.0135    0.0000 C   0  0  0  0  0  0  0  0  0  0  0  0
    0.7145   -5.4260    0.0000 O   0  0  0  0  0  0  0  0  0  0  0  0
    1.4289   -4.1885    0.0000 C   0  0  0  0  0  0  0  0  0  0  0  0
    0.7145   -3.7760    0.0000 N   0  0  0  0  0  0  0  0  0  0  0  0
    0.7145   -2.9510    0.0000 N   0  0  0  0  0  0  0  0  0  0  0  0
    0.0000   -2.5385    0.0000 C   0  0  0  0  0  0  0  0  0  0  0  0
    0.0000   -1.7135    0.0000 C   0  0  0  0  0  0  0  0  0  0  0  0
   -0.7145   -1.3010    0.0000 C   0  0  0  0  0  0  0  0  0  0  0  0
   -1.4289   -1.7135    0.0000 C   0  0  0  0  0  0  0  0  0  0  0  0
   -2.1434   -1.3010    0.0000 C   0  0  0  0  0  0  0  0  0  0  0  0
   -1.4289   -2.5385    0.0000 C   0  0  0  0  0  0  0  0  0  0  0  0
   -0.7145   -2.9510    0.0000 C   0  0  0  0  0  0  0  0  0  0  0  0
   -0.7145   -3.7760    0.0000 N   0  3  0  0  0  0  0  0  0  0  0  0
    0.0000   -4.1885    0.0000 O   0  5  0  0  0  0  0  0  0  0  0  0
   -1.4289   -4.1885    0.0000 O   0  0  0  0  0  0  0  0  0  0  0  0
    2.1434   -3.7760    0.0000 C   0  0  0  0  0  0  0  0  0  0  0  0
    2.1434   -2.9510    0.0000 O   0  0  0  0  0  0  0  0  0  0  0  0
    2.8579   -4.1885    0.0000 N   0  0  0  0  0  0  0  0  0  0  0  0
    3.5724   -3.7760    0.0000 C   0  0  0  0  0  0  0  0  0  0  0  0
    4.2868   -4.1885    0.0000 C   0  0  0  0  0  0  0  0  0  0  0  0
    5.0013   -3.7760    0.0000 C   0  0  0  0  0  0  0  0  0  0  0  0
    5.0013   -2.9510    0.0000 C   0  0  0  0  0  0  0  0  0  0  0  0
    5.7158   -2.5385    0.0000 Cl  0  0  0  0  0  0  0  0  0  0  0  0
    4.2868   -2.5385    0.0000 C   0  0  0  0  0  0  0  0  0  0  0  0
    3.5724   -2.9510    0.0000 C   0  0  0  0  0  0  0  0  0  0  0  0
  1  2  1  0  0  0  0
  2  3  2  0  0  0  0
  2  4  1  0  0  0  0
  5  4  1  4  0  0  0
  5  6  2  0  0  0  0
  6  7  1  0  0  0  0
  8  7  1  0  0  0  0
  9  8  2  0  0  0  0
 10  9  1  0  0  0  0
 10 11  1  0  0  0  0
 12 10  2  0  0  0  0
 13 12  1  0  0  0  0
  7 13  2  0  0  0  0
 13 14  1  0  0  0  0
 14 15  1  0  0  0  0
 14 16  2  0  0  0  0
  4 17  1  0  0  0  0
 17 18  2  0  0  0  0
 17 19  1  0  0  0  0
 19 20  1  0  0  0  0
 21 20  1  0  0  0  0
 22 21  2  0  0  0  0
 23 22  1  0  0  0  0
 23 24  1  0  0  0  0
 25 23  2  0  0  0  0
 26 25  1  0  0  0  0
 20 26  2  0  0  0  0
M  CHG  2  14   1  15  -1
M  END
> <RowID>
1223

> <Original_SMILES>
CC(=O)C(N=NC1C=CC(C)=CC=1[N+]([O-])=O)C(=O)NC1C=CC(Cl)=CC=1

> <Canonical_QSARr>
CC(=O)C(N=NC1C=CC(C)=CC=1[N+]([O-])=O)C(=O)NC1C=CC(Cl)=CC=1

> <InChI_Code_QSARr>
InChI=1S/C17H15ClN4O4/c1-10-3-8-14(15(9-10)22(25)26)20-21-16(11(2)23)17(24)19-13-6-4-12(18)5-7-13/h3-9,16H,1-2H3,(H,19,24)

> <InChI Key_QSARr>
DZPAQLHIDOYCNQ-UHFFFAOYSA-N

> <Salt_Solvent>


> <Salt_Solvent_ID>
0

> <Number of connected components>
1

$$$$
Molecule_1224
  Mrv2316 01072400032D          

  4  3  0  0  0  0            999 V2000
    1.2375    0.7145    0.0000 O   0  0  0  0  0  0  0  0  0  0  0  0
    0.8250   -0.0000    0.0000 C   0  0  0  0  0  0  0  0  0  0  0  0
    1.2375   -0.7145    0.0000 O   0  0  0  0  0  0  0  0  0  0  0  0
    0.0000   -0.0000    0.0000 C   0  0  0  0  0  0  0  0  0  0  0  0
  1  2  1  0  0  0  0
  2  3  2  0  0  0  0
  2  4  1  0  0  0  0
M  END
> <RowID>
1224

> <Original_SMILES>
[Ca+2].CC([O-])=O.CC([O-])=O

> <Canonical_QSARr>
CC(O)=O

> <InChI_Code_QSARr>
InChI=1S/C2H4O2/c1-2(3)4/h1H3,(H,3,4)

> <InChI Key_QSARr>
QTBSBXVTEAMEQO-UHFFFAOYSA-N

> <Salt_Solvent>
[Ca+2]

> <Salt_Solvent_ID>
200

> <Number of connected components>
3

$$$$
Molecule_1225
  Mrv2316 01072400032D          

 17 16  0  0  0  0            999 V2000
    1.3776    2.4454    0.0000 O   0  0  0  0  0  0  0  0  0  0  0  0
    2.0921    2.8579    0.0000 S   0  0  0  0  0  0  0  0  0  0  0  0
    2.5046    2.1434    0.0000 O   0  0  0  0  0  0  0  0  0  0  0  0
    1.6796    3.5724    0.0000 O   0  0  0  0  0  0  0  0  0  0  0  0
    2.8066    3.2704    0.0000 O   0  0  0  0  0  0  0  0  0  0  0  0
    3.5211    2.8579    0.0000 C   0  0  0  0  0  0  0  0  0  0  0  0
    4.2355    3.2704    0.0000 C   0  0  0  0  0  0  0  0  0  0  0  0
    4.9500    2.8579    0.0000 C   0  0  0  0  0  0  0  0  0  0  0  0
    5.6645    3.2704    0.0000 C   0  0  0  0  0  0  0  0  0  0  0  0
    6.3789    2.8579    0.0000 C   0  0  0  0  0  0  0  0  0  0  0  0
    7.0934    3.2704    0.0000 C   0  0  0  0  0  0  0  0  0  0  0  0
    7.8079    2.8579    0.0000 C   0  0  0  0  0  0  0  0  0  0  0  0
    8.5224    3.2704    0.0000 C   0  0  0  0  0  0  0  0  0  0  0  0
    9.2368    2.8579    0.0000 C   0  0  0  0  0  0  0  0  0  0  0  0
    9.9513    3.2704    0.0000 C   0  0  0  0  0  0  0  0  0  0  0  0
   10.6658    2.8579    0.0000 C   0  0  0  0  0  0  0  0  0  0  0  0
   11.3802    3.2704    0.0000 C   0  0  0  0  0  0  0  0  0  0  0  0
  1  2  1  0  0  0  0
  2  3  2  0  0  0  0
  2  4  2  0  0  0  0
  2  5  1  0  0  0  0
  5  6  1  0  0  0  0
  6  7  1  0  0  0  0
  7  8  1  0  0  0  0
  8  9  1  0  0  0  0
  9 10  1  0  0  0  0
 10 11  1  0  0  0  0
 11 12  1  0  0  0  0
 12 13  1  0  0  0  0
 13 14  1  0  0  0  0
 14 15  1  0  0  0  0
 15 16  1  0  0  0  0
 16 17  1  0  0  0  0
M  END
> <RowID>
1225

> <Original_SMILES>
[Na+].CCCCCCCCCCCCOS([O-])(=O)=O

> <Canonical_QSARr>
CCCCCCCCCCCCOS(O)(=O)=O

> <InChI_Code_QSARr>
InChI=1S/C12H26O4S/c1-2-3-4-5-6-7-8-9-10-11-12-16-17(13,14)15/h2-12H2,1H3,(H,13,14,15)

> <InChI Key_QSARr>
MOTZDAYCYVMXPC-UHFFFAOYSA-N

> <Salt_Solvent>
[Na+]

> <Salt_Solvent_ID>
110

> <Number of connected components>
2

$$$$
Molecule_1226
  Mrv2316 01072400032D          

  8  7  0  0  0  0            999 V2000
    1.6501    1.4290    0.0000 C   0  0  0  0  0  0  0  0  0  0  0  0
    1.2376    0.7145    0.0000 Si  0  0  0  0  0  0  0  0  0  0  0  0
    0.5231    1.1270    0.0000 C   0  0  0  0  0  0  0  0  0  0  0  0
   -0.1914    0.7145    0.0000 C   0  0  0  0  0  0  0  0  0  0  0  0
    1.9521    0.3020    0.0000 O   0  0  0  0  0  0  0  0  0  0  0  0
    2.6665    0.7145    0.0000 C   0  0  0  0  0  0  0  0  0  0  0  0
    0.8251    0.0001    0.0000 O   0  0  0  0  0  0  0  0  0  0  0  0
    0.0001    0.0001    0.0000 C   0  0  0  0  0  0  0  0  0  0  0  0
  1  2  1  0  0  0  0
  2  3  1  0  0  0  0
  3  4  2  0  0  0  0
  2  5  1  0  0  0  0
  5  6  1  0  0  0  0
  2  7  1  0  0  0  0
  7  8  1  0  0  0  0
M  END
> <RowID>
1226

> <Original_SMILES>
C[Si](C=C)(OC)OC

> <Canonical_QSARr>
C[Si](C=C)(OC)OC

> <InChI_Code_QSARr>
InChI=1S/C5H12O2Si/c1-5-8(4,6-2)7-3/h5H,1H2,2-4H3

> <InChI Key_QSARr>
ZLNAFSPCNATQPQ-UHFFFAOYSA-N

> <Salt_Solvent>


> <Salt_Solvent_ID>
0

> <Number of connected components>
1

$$$$
Molecule_1227
  Mrv2316 01072400032D          

 11 10  0  0  0  0            999 V2000
    4.2355    3.2704    0.0000 C   0  0  0  0  0  0  0  0  0  0  0  0
    4.9500    2.8579    0.0000 C   0  0  0  0  0  0  0  0  0  0  0  0
    5.6645    3.2704    0.0000 C   0  0  0  0  0  0  0  0  0  0  0  0
    6.3789    2.8579    0.0000 C   0  0  0  0  0  0  0  0  0  0  0  0
    7.0934    3.2704    0.0000 O   0  0  0  0  0  0  0  0  0  0  0  0
    7.8079    2.8579    0.0000 C   0  0  0  0  0  0  0  0  0  0  0  0
    8.5224    3.2704    0.0000 C   0  0  0  0  0  0  0  0  0  0  0  0
    9.2368    2.8579    0.0000 O   0  0  0  0  0  0  0  0  0  0  0  0
    9.9513    3.2704    0.0000 C   0  0  0  0  0  0  0  0  0  0  0  0
   10.6658    2.8579    0.0000 C   0  0  0  0  0  0  0  0  0  0  0  0
   11.3802    3.2704    0.0000 O   0  0  0  0  0  0  0  0  0  0  0  0
  1  2  1  0  0  0  0
  2  3  1  0  0  0  0
  3  4  1  0  0  0  0
  4  5  1  0  0  0  0
  5  6  1  0  0  0  0
  6  7  1  0  0  0  0
  7  8  1  0  0  0  0
  8  9  1  0  0  0  0
  9 10  1  0  0  0  0
 10 11  1  0  0  0  0
M  END
> <RowID>
1227

> <Original_SMILES>
CCCCOCCOCCO

> <Canonical_QSARr>
CCCCOCCOCCO

> <InChI_Code_QSARr>
InChI=1S/C8H18O3/c1-2-3-5-10-7-8-11-6-4-9/h9H,2-8H2,1H3

> <InChI Key_QSARr>
OAYXUHPQHDHDDZ-UHFFFAOYSA-N

> <Salt_Solvent>


> <Salt_Solvent_ID>
0

> <Number of connected components>
1

$$$$
Molecule_1228
  Mrv2316 01072400032D          

 11 11  0  0  0  0            999 V2000
   -0.0000   -0.7500    0.0000 C   0  0  0  0  0  0  0  0  0  0  0  0
    0.7145   -0.3375    0.0000 C   0  0  0  0  0  0  0  0  0  0  0  0
    1.4289   -0.7500    0.0000 C   0  0  0  0  0  0  0  0  0  0  0  0
    0.7145    0.4875    0.0000 C   0  0  0  0  0  0  0  0  0  0  0  0
    1.4289    0.9000    0.0000 C   0  0  0  0  0  0  0  0  0  0  0  0
    1.4289    1.7250    0.0000 C   0  0  0  0  0  0  0  0  0  0  0  0
    0.7145    2.1375    0.0000 C   0  0  0  0  0  0  0  0  0  0  0  0
    0.7145    2.9625    0.0000 C   0  0  0  0  0  0  0  0  0  0  0  0
   -0.0000    1.7250    0.0000 C   0  0  0  0  0  0  0  0  0  0  0  0
   -0.0000    0.9000    0.0000 C   0  0  0  0  0  0  0  0  0  0  0  0
   -0.7145    0.4875    0.0000 O   0  0  0  0  0  0  0  0  0  0  0  0
  1  2  1  0  0  0  0
  2  3  1  0  0  0  0
  2  4  1  0  0  0  0
  5  4  1  0  0  0  0
  6  5  1  0  0  0  0
  7  6  1  0  0  0  0
  7  8  1  0  0  0  0
  9  7  1  0  0  0  0
 10  9  1  0  0  0  0
  4 10  1  0  0  0  0
 10 11  1  0  0  0  0
M  END
> <RowID>
1228

> <Original_SMILES>
CC(C)C1CCC(C)CC1O

> <Canonical_QSARr>
CC(C)C1CCC(C)CC1O

> <InChI_Code_QSARr>
InChI=1S/C10H20O/c1-7(2)9-5-4-8(3)6-10(9)11/h7-11H,4-6H2,1-3H3

> <InChI Key_QSARr>
NOOLISFMXDJSKH-UHFFFAOYSA-N

> <Salt_Solvent>


> <Salt_Solvent_ID>
0

> <Number of connected components>
1

$$$$
Molecule_1229
  Mrv2316 01072400032D          

 14 13  0  0  0  0            999 V2000
   -3.0493    0.7145    0.0000 C   0  0  0  0  0  0  0  0  0  0  0  0
   -2.3349    0.3020    0.0000 C   0  0  0  0  0  0  0  0  0  0  0  0
   -1.6204    0.7145    0.0000 C   0  0  0  0  0  0  0  0  0  0  0  0
   -1.2079    0.0000    0.0000 C   0  0  0  0  0  0  0  0  0  0  0  0
   -2.0329    1.4290    0.0000 C   0  0  0  0  0  0  0  0  0  0  0  0
   -0.9059    1.1270    0.0000 C   0  0  0  0  0  0  0  0  0  0  0  0
   -0.9059    1.9520    0.0000 O   0  0  0  0  0  0  0  0  0  0  0  0
   -0.1914    0.7145    0.0000 S   0  0  0  0  0  0  0  0  0  0  0  0
    0.5230    1.1270    0.0000 C   0  0  0  0  0  0  0  0  0  0  0  0
    1.2375    0.7145    0.0000 C   0  0  0  0  0  0  0  0  0  0  0  0
    1.9520    1.1270    0.0000 C   0  0  0  0  0  0  0  0  0  0  0  0
    1.9520    1.9520    0.0000 O   0  0  0  0  0  0  0  0  0  0  0  0
    2.6664    0.7145    0.0000 O   0  0  0  0  0  0  0  0  0  0  0  0
    3.3809    1.1270    0.0000 C   0  0  0  0  0  0  0  0  0  0  0  0
  1  2  1  0  0  0  0
  2  3  1  0  0  0  0
  3  4  1  0  0  0  0
  3  5  1  0  0  0  0
  3  6  1  0  0  0  0
  6  7  2  0  0  0  0
  6  8  1  0  0  0  0
  8  9  1  0  0  0  0
  9 10  1  0  0  0  0
 10 11  1  0  0  0  0
 11 12  2  0  0  0  0
 11 13  1  0  0  0  0
 13 14  1  0  0  0  0
M  END
> <RowID>
1229

> <Original_SMILES>
CCC(C)(C)C(=O)SCCC(=O)OC

> <Canonical_QSARr>
CCC(C)(C)C(=O)SCCC(=O)OC

> <InChI_Code_QSARr>
InChI=1S/C10H18O3S/c1-5-10(2,3)9(12)14-7-6-8(11)13-4/h5-7H2,1-4H3

> <InChI Key_QSARr>
OSAXTZWRAGDRFI-UHFFFAOYSA-N

> <Salt_Solvent>


> <Salt_Solvent_ID>
0

> <Number of connected components>
1

$$$$
Molecule_1232
  Mrv2316 01072400032D          

 25 27  0  0  0  0            999 V2000
   -2.4578   -3.3000    0.0000 O   0  0  0  0  0  0  0  0  0  0  0  0
   -1.7433   -3.7125    0.0000 S   0  0  0  0  0  0  0  0  0  0  0  0
   -1.3308   -2.9980    0.0000 O   0  0  0  0  0  0  0  0  0  0  0  0
   -2.1558   -4.4270    0.0000 O   0  0  0  0  0  0  0  0  0  0  0  0
   -1.0288   -4.1250    0.0000 C   0  0  0  0  0  0  0  0  0  0  0  0
   -1.0288   -4.9500    0.0000 C   0  0  0  0  0  0  0  0  0  0  0  0
   -0.3144   -5.3625    0.0000 C   0  0  0  0  0  0  0  0  0  0  0  0
   -0.3144   -6.1875    0.0000 Cl  0  0  0  0  0  0  0  0  0  0  0  0
    0.4001   -4.9500    0.0000 C   0  0  0  0  0  0  0  0  0  0  0  0
    1.1146   -5.3625    0.0000 C   0  0  0  0  0  0  0  0  0  0  0  0
    0.4001   -4.1250    0.0000 C   0  0  0  0  0  0  0  0  0  0  0  0
   -0.3144   -3.7125    0.0000 C   0  0  0  0  0  0  0  0  0  0  0  0
   -0.3144   -2.8875    0.0000 N   0  0  0  0  0  0  0  0  0  0  0  0
    0.4001   -2.4750    0.0000 N   0  0  0  0  0  0  0  0  0  0  0  0
    0.4001   -1.6500    0.0000 C   0  0  0  0  0  0  0  0  0  0  0  0
    1.1146   -1.2375    0.0000 C   0  0  0  0  0  0  0  0  0  0  0  0
    1.1146   -0.4125    0.0000 C   0  0  0  0  0  0  0  0  0  0  0  0
    1.8290   -0.0000    0.0000 C   0  0  0  0  0  0  0  0  0  0  0  0
    2.5435   -0.4125    0.0000 C   0  0  0  0  0  0  0  0  0  0  0  0
    2.5435   -1.2375    0.0000 C   0  0  0  0  0  0  0  0  0  0  0  0
    1.8290   -1.6500    0.0000 C   0  0  0  0  0  0  0  0  0  0  0  0
    0.4001   -0.0000    0.0000 C   0  0  0  0  0  0  0  0  0  0  0  0
   -0.3144   -0.4125    0.0000 C   0  0  0  0  0  0  0  0  0  0  0  0
   -0.3144   -1.2375    0.0000 C   0  0  0  0  0  0  0  0  0  0  0  0
   -1.0288   -1.6500    0.0000 O   0  0  0  0  0  0  0  0  0  0  0  0
  1  2  1  0  0  0  0
  2  3  2  0  0  0  0
  2  4  2  0  0  0  0
  2  5  1  0  0  0  0
  6  5  2  0  0  0  0
  7  6  1  0  0  0  0
  7  8  1  0  0  0  0
  9  7  2  0  0  0  0
  9 10  1  0  0  0  0
 11  9  1  0  0  0  0
 12 11  2  0  0  0  0
  5 12  1  0  0  0  0
 13 12  1  4  0  0  0
 13 14  2  0  0  0  0
 14 15  1  0  0  0  0
 16 15  1  0  0  0  0
 16 17  1  0  0  0  0
 17 18  2  0  0  0  0
 18 19  1  0  0  0  0
 19 20  2  0  0  0  0
 20 21  1  0  0  0  0
 21 16  2  0  0  0  0
 22 17  1  0  0  0  0
 23 22  2  0  0  0  0
 24 23  1  0  0  0  0
 15 24  2  0  0  0  0
 24 25  1  0  0  0  0
M  END
> <RowID>
1232

> <Original_SMILES>
[Sr+2].CC1C=C(N=NC2=C3C=CC=CC3=CC=C2O)C(=CC=1Cl)S([O-])(=O)=O.CC1C=C(N=NC2=C3C=CC=CC3=CC=C2O)C(=CC=1Cl)S([O-])(=O)=O

> <Canonical_QSARr>
CC1C=C(N=NC2C3=CC=CC=C3C=CC=2O)C(=CC=1Cl)S(O)(=O)=O

> <InChI_Code_QSARr>
InChI=1S/C17H13ClN2O4S/c1-10-8-14(16(9-13(10)18)25(22,23)24)19-20-17-12-5-3-2-4-11(12)6-7-15(17)21/h2-9,21H,1H3,(H,22,23,24)

> <InChI Key_QSARr>
IYHIFXGFKVJNBB-UHFFFAOYSA-N

> <Salt_Solvent>
[Sr+2]

> <Salt_Solvent_ID>
380

> <Number of connected components>
3

$$$$
Molecule_1234
  Mrv2316 01072400032D          

 34 37  0  0  0  0            999 V2000
    1.5970    3.7125    0.0000 C   0  0  0  0  0  0  0  0  0  0  0  0
    0.8826    3.3000    0.0000 C   0  0  0  0  0  0  0  0  0  0  0  0
    0.8826    2.4750    0.0000 O   0  0  0  0  0  0  0  0  0  0  0  0
    0.1681    2.0625    0.0000 C   0  0  0  0  0  0  0  0  0  0  0  0
   -0.5464    2.4750    0.0000 C   0  0  0  0  0  0  0  0  0  0  0  0
   -1.2608    2.0625    0.0000 C   0  0  0  0  0  0  0  0  0  0  0  0
   -1.2608    1.2375    0.0000 C   0  0  0  0  0  0  0  0  0  0  0  0
   -0.5464    0.8250    0.0000 C   0  0  0  0  0  0  0  0  0  0  0  0
    0.1681    1.2375    0.0000 C   0  0  0  0  0  0  0  0  0  0  0  0
    0.8826    0.8250    0.0000 N   0  0  0  0  0  0  0  0  0  0  0  0
    0.8826   -0.0000    0.0000 C   0  0  0  0  0  0  0  0  0  0  0  0
    0.1681   -0.4125    0.0000 O   0  0  0  0  0  0  0  0  0  0  0  0
    1.5970   -0.4125    0.0000 C   0  0  0  0  0  0  0  0  0  0  0  0
    2.3115   -0.0000    0.0000 C   0  0  0  0  0  0  0  0  0  0  0  0
    3.0260   -0.4125    0.0000 C   0  0  0  0  0  0  0  0  0  0  0  0
    3.7405   -0.0000    0.0000 C   0  0  0  0  0  0  0  0  0  0  0  0
    4.4549   -0.4125    0.0000 C   0  0  0  0  0  0  0  0  0  0  0  0
    4.4549   -1.2375    0.0000 C   0  0  0  0  0  0  0  0  0  0  0  0
    3.7405   -1.6500    0.0000 C   0  0  0  0  0  0  0  0  0  0  0  0
    3.0260   -1.2375    0.0000 C   0  0  0  0  0  0  0  0  0  0  0  0
    2.3115   -1.6500    0.0000 C   0  0  0  0  0  0  0  0  0  0  0  0
    2.3115   -2.4750    0.0000 N   0  0  0  0  0  0  0  0  0  0  0  0
    1.5970   -2.8875    0.0000 N   0  0  0  0  0  0  0  0  0  0  0  0
    1.5970   -3.7125    0.0000 C   0  0  0  0  0  0  0  0  0  0  0  0
    0.8826   -4.1250    0.0000 C   0  0  0  0  0  0  0  0  0  0  0  0
    0.8826   -4.9500    0.0000 C   0  0  0  0  0  0  0  0  0  0  0  0
    1.5970   -5.3625    0.0000 C   0  0  0  0  0  0  0  0  0  0  0  0
    1.5970   -6.1875    0.0000 C   0  0  0  0  0  0  0  0  0  0  0  0
    2.3115   -6.6000    0.0000 N   0  0  0  0  0  0  0  0  0  0  0  0
    0.8826   -6.6000    0.0000 O   0  0  0  0  0  0  0  0  0  0  0  0
    2.3115   -4.9500    0.0000 C   0  0  0  0  0  0  0  0  0  0  0  0
    2.3115   -4.1250    0.0000 C   0  0  0  0  0  0  0  0  0  0  0  0
    1.5970   -1.2375    0.0000 C   0  0  0  0  0  0  0  0  0  0  0  0
    0.8826   -1.6500    0.0000 O   0  0  0  0  0  0  0  0  0  0  0  0
  1  2  1  0  0  0  0
  2  3  1  0  0  0  0
  3  4  1  0  0  0  0
  5  4  1  0  0  0  0
  6  5  2  0  0  0  0
  7  6  1  0  0  0  0
  8  7  2  0  0  0  0
  9  8  1  0  0  0  0
  4  9  2  0  0  0  0
  9 10  1  0  0  0  0
 10 11  1  0  0  0  0
 11 12  2  0  0  0  0
 11 13  1  0  0  0  0
 14 13  2  0  0  0  0
 15 14  1  0  0  0  0
 15 16  1  0  0  0  0
 16 17  2  0  0  0  0
 17 18  1  0  0  0  0
 18 19  2  0  0  0  0
 19 20  1  0  0  0  0
 20 15  2  0  0  0  0
 21 20  1  0  0  0  0
 22 21  1  4  0  0  0
 22 23  2  0  0  0  0
 23 24  1  0  0  0  0
 25 24  1  0  0  0  0
 26 25  2  0  0  0  0
 27 26  1  0  0  0  0
 27 28  1  0  0  0  0
 28 29  1  0  0  0  0
 28 30  2  0  0  0  0
 31 27  2  0  0  0  0
 32 31  1  0  0  0  0
 24 32  2  0  0  0  0
 33 21  2  0  0  0  0
 13 33  1  0  0  0  0
 33 34  1  0  0  0  0
M  END
> <RowID>
1234

> <Original_SMILES>
CCOC1C=CC=CC=1NC(=O)C1=CC2C=CC=CC=2C(N=NC2C=CC(=CC=2)C(N)=O)=C1O

> <Canonical_QSARr>
CCOC1C=CC=CC=1NC(=O)C1=CC2C=CC=CC=2C(N=NC2C=CC(=CC=2)C(N)=O)=C1O

> <InChI_Code_QSARr>
InChI=1S/C26H22N4O4/c1-2-34-22-10-6-5-9-21(22)28-26(33)20-15-17-7-3-4-8-19(17)23(24(20)31)30-29-18-13-11-16(12-14-18)25(27)32/h3-15,31H,2H2,1H3,(H2,27,32)(H,28,33)

> <InChI Key_QSARr>
BGVYDWVAGZBEMJ-UHFFFAOYSA-N

> <Salt_Solvent>


> <Salt_Solvent_ID>
0

> <Number of connected components>
1

$$$$
Molecule_1235
  Mrv2316 01072400032D          

 10  9  0  0  0  0            999 V2000
    2.2836    2.1434    0.0000 C   0  0  0  0  0  0  0  0  0  0  0  0
    2.9980    2.5559    0.0000 C   0  0  0  0  0  0  0  0  0  0  0  0
    3.7125    2.1434    0.0000 O   0  0  0  0  0  0  0  0  0  0  0  0
    4.4270    2.5559    0.0000 C   0  0  0  0  0  0  0  0  0  0  0  0
    5.1414    2.1434    0.0000 C   0  0  0  0  0  0  0  0  0  0  0  0
    5.8559    2.5559    0.0000 C   0  0  0  0  0  0  0  0  0  0  0  0
    6.5704    2.1434    0.0000 C   0  0  0  0  0  0  0  0  0  0  0  0
    7.2849    2.5559    0.0000 O   0  0  0  0  0  0  0  0  0  0  0  0
    7.9993    2.1434    0.0000 C   0  0  0  0  0  0  0  0  0  0  0  0
    8.7138    2.5559    0.0000 C   0  0  0  0  0  0  0  0  0  0  0  0
  1  2  2  0  0  0  0
  2  3  1  0  0  0  0
  3  4  1  0  0  0  0
  4  5  1  0  0  0  0
  5  6  1  0  0  0  0
  6  7  1  0  0  0  0
  7  8  1  0  0  0  0
  8  9  1  0  0  0  0
  9 10  2  0  0  0  0
M  END
> <RowID>
1235

> <Original_SMILES>
C=COCCCCOC=C

> <Canonical_QSARr>
C=COCCCCOC=C

> <InChI_Code_QSARr>
InChI=1S/C8H14O2/c1-3-9-7-5-6-8-10-4-2/h3-4H,1-2,5-8H2

> <InChI Key_QSARr>
MWZJGRDWJVHRDV-UHFFFAOYSA-N

> <Salt_Solvent>


> <Salt_Solvent_ID>
0

> <Number of connected components>
1

$$$$
Molecule_1236
  Mrv2316 01072400032D          

 85 84  0  0  0  0            999 V2000
  -10.8059    3.7638    0.0000 C   0  0  0  0  0  0  0  0  0  0  0  0
  -10.3934    3.0493    0.0000 C   0  0  0  0  0  0  0  0  0  0  0  0
   -9.5684    3.0493    0.0000 C   0  0  0  0  0  0  0  0  0  0  0  0
   -9.1559    2.3349    0.0000 C   0  0  0  0  0  0  0  0  0  0  0  0
   -8.3309    2.3349    0.0000 C   0  0  0  0  0  0  0  0  0  0  0  0
   -7.9184    1.6204    0.0000 C   0  0  0  0  0  0  0  0  0  0  0  0
   -7.0934    1.6204    0.0000 C   0  0  0  0  0  0  0  0  0  0  0  0
   -6.6809    0.9059    0.0000 C   0  0  0  0  0  0  0  0  0  0  0  0
   -5.8559    0.9059    0.0000 C   0  0  0  0  0  0  0  0  0  0  0  0
   -5.4434    0.1914    0.0000 C   0  0  0  0  0  0  0  0  0  0  0  0
   -4.6184    0.1914    0.0000 C   0  0  0  0  0  0  0  0  0  0  0  0
   -4.2059   -0.5230    0.0000 C   0  0  0  0  0  0  0  0  0  0  0  0
   -3.3809   -0.5230    0.0000 C   0  0  0  0  0  0  0  0  0  0  0  0
   -2.9684   -1.2375    0.0000 C   0  0  0  0  0  0  0  0  0  0  0  0
   -2.1434   -1.2375    0.0000 C   0  0  0  0  0  0  0  0  0  0  0  0
   -1.7309   -1.9520    0.0000 C   0  0  0  0  0  0  0  0  0  0  0  0
   -0.9059   -1.9520    0.0000 C   0  0  0  0  0  0  0  0  0  0  0  0
   -0.4934   -2.6664    0.0000 C   0  0  0  0  0  0  0  0  0  0  0  0
   -0.9059   -3.3809    0.0000 O   0  0  0  0  0  0  0  0  0  0  0  0
    0.3316   -2.6664    0.0000 O   0  0  0  0  0  0  0  0  0  0  0  0
    0.7441   -3.3809    0.0000 C   0  0  0  0  0  0  0  0  0  0  0  0
    1.5691   -3.3809    0.0000 C   0  0  0  0  0  0  0  0  0  0  0  0
    2.3941   -3.3809    0.0000 C   0  0  0  0  0  0  0  0  0  0  0  0
    2.8066   -4.0954    0.0000 O   0  0  0  0  0  0  0  0  0  0  0  0
    3.6316   -4.0954    0.0000 C   0  0  0  0  0  0  0  0  0  0  0  0
    4.0441   -3.3809    0.0000 O   0  0  0  0  0  0  0  0  0  0  0  0
    4.0441   -4.8098    0.0000 C   0  0  0  0  0  0  0  0  0  0  0  0
    4.8691   -4.8098    0.0000 C   0  0  0  0  0  0  0  0  0  0  0  0
    5.2816   -5.5243    0.0000 C   0  0  0  0  0  0  0  0  0  0  0  0
    6.1066   -5.5243    0.0000 C   0  0  0  0  0  0  0  0  0  0  0  0
    6.5191   -6.2388    0.0000 C   0  0  0  0  0  0  0  0  0  0  0  0
    7.3441   -6.2388    0.0000 C   0  0  0  0  0  0  0  0  0  0  0  0
    7.7566   -6.9533    0.0000 C   0  0  0  0  0  0  0  0  0  0  0  0
    8.5816   -6.9533    0.0000 C   0  0  0  0  0  0  0  0  0  0  0  0
    8.9941   -7.6677    0.0000 C   0  0  0  0  0  0  0  0  0  0  0  0
    9.8191   -7.6677    0.0000 C   0  0  0  0  0  0  0  0  0  0  0  0
   10.2316   -8.3822    0.0000 C   0  0  0  0  0  0  0  0  0  0  0  0
    9.8191   -9.0967    0.0000 C   0  0  0  0  0  0  0  0  0  0  0  0
   10.2316   -9.8111    0.0000 C   0  0  0  0  0  0  0  0  0  0  0  0
    9.8191  -10.5256    0.0000 C   0  0  0  0  0  0  0  0  0  0  0  0
   10.2316  -11.2401    0.0000 C   0  0  0  0  0  0  0  0  0  0  0  0
    9.8191  -11.9546    0.0000 C   0  0  0  0  0  0  0  0  0  0  0  0
   10.2316  -12.6690    0.0000 C   0  0  0  0  0  0  0  0  0  0  0  0
    1.5691   -4.2059    0.0000 C   0  0  0  0  0  0  0  0  0  0  0  0
    2.2836   -4.6184    0.0000 O   0  0  0  0  0  0  0  0  0  0  0  0
    2.2836   -5.4434    0.0000 C   0  0  0  0  0  0  0  0  0  0  0  0
    1.5691   -5.8559    0.0000 O   0  0  0  0  0  0  0  0  0  0  0  0
    2.9980   -5.8559    0.0000 C   0  0  0  0  0  0  0  0  0  0  0  0
    2.9980   -6.6809    0.0000 C   0  0  0  0  0  0  0  0  0  0  0  0
    3.7125   -7.0934    0.0000 C   0  0  0  0  0  0  0  0  0  0  0  0
    3.7125   -7.9184    0.0000 C   0  0  0  0  0  0  0  0  0  0  0  0
    4.4270   -8.3309    0.0000 C   0  0  0  0  0  0  0  0  0  0  0  0
    4.4270   -9.1559    0.0000 C   0  0  0  0  0  0  0  0  0  0  0  0
    5.1415   -9.5684    0.0000 C   0  0  0  0  0  0  0  0  0  0  0  0
    5.1415  -10.3934    0.0000 C   0  0  0  0  0  0  0  0  0  0  0  0
    5.8559  -10.8059    0.0000 C   0  0  0  0  0  0  0  0  0  0  0  0
    5.8559  -11.6309    0.0000 C   0  0  0  0  0  0  0  0  0  0  0  0
    5.1415  -12.0434    0.0000 C   0  0  0  0  0  0  0  0  0  0  0  0
    5.1415  -12.8684    0.0000 C   0  0  0  0  0  0  0  0  0  0  0  0
    4.4270  -13.2809    0.0000 C   0  0  0  0  0  0  0  0  0  0  0  0
    4.4270  -14.1059    0.0000 C   0  0  0  0  0  0  0  0  0  0  0  0
    3.7125  -14.5184    0.0000 C   0  0  0  0  0  0  0  0  0  0  0  0
    3.7125  -15.3434    0.0000 C   0  0  0  0  0  0  0  0  0  0  0  0
    2.9980  -15.7559    0.0000 C   0  0  0  0  0  0  0  0  0  0  0  0
    1.5691   -2.5559    0.0000 C   0  0  0  0  0  0  0  0  0  0  0  0
    2.2836   -2.1434    0.0000 O   0  0  0  0  0  0  0  0  0  0  0  0
    2.9980   -2.5559    0.0000 C   0  0  0  0  0  0  0  0  0  0  0  0
    2.9980   -3.3809    0.0000 O   0  0  0  0  0  0  0  0  0  0  0  0
    3.7125   -2.1434    0.0000 C   0  0  0  0  0  0  0  0  0  0  0  0
    4.4270   -2.5559    0.0000 C   0  0  0  0  0  0  0  0  0  0  0  0
    5.1415   -2.1434    0.0000 C   0  0  0  0  0  0  0  0  0  0  0  0
    5.8559   -2.5559    0.0000 C   0  0  0  0  0  0  0  0  0  0  0  0
    6.5704   -2.1434    0.0000 C   0  0  0  0  0  0  0  0  0  0  0  0
    7.2849   -2.5559    0.0000 C   0  0  0  0  0  0  0  0  0  0  0  0
    7.9993   -2.1434    0.0000 C   0  0  0  0  0  0  0  0  0  0  0  0
    8.7138   -2.5559    0.0000 C   0  0  0  0  0  0  0  0  0  0  0  0
    9.4283   -2.1434    0.0000 C   0  0  0  0  0  0  0  0  0  0  0  0
   10.1427   -2.5559    0.0000 C   0  0  0  0  0  0  0  0  0  0  0  0
   10.1427   -3.3809    0.0000 C   0  0  0  0  0  0  0  0  0  0  0  0
   10.8572   -3.7934    0.0000 C   0  0  0  0  0  0  0  0  0  0  0  0
   10.8572   -4.6184    0.0000 C   0  0  0  0  0  0  0  0  0  0  0  0
   11.5717   -5.0309    0.0000 C   0  0  0  0  0  0  0  0  0  0  0  0
   11.5717   -5.8559    0.0000 C   0  0  0  0  0  0  0  0  0  0  0  0
   12.2862   -6.2684    0.0000 C   0  0  0  0  0  0  0  0  0  0  0  0
   12.2862   -7.0934    0.0000 C   0  0  0  0  0  0  0  0  0  0  0  0
  1  2  1  0  0  0  0
  2  3  1  0  0  0  0
  3  4  1  0  0  0  0
  4  5  1  0  0  0  0
  5  6  1  0  0  0  0
  6  7  1  0  0  0  0
  7  8  1  0  0  0  0
  9  8  1  4  0  0  0
  9 10  2  0  0  0  0
 10 11  1  0  0  0  0
 11 12  1  0  0  0  0
 12 13  1  0  0  0  0
 13 14  1  0  0  0  0
 14 15  1  0  0  0  0
 15 16  1  0  0  0  0
 16 17  1  0  0  0  0
 17 18  1  0  0  0  0
 18 19  2  0  0  0  0
 18 20  1  0  0  0  0
 20 21  1  0  0  0  0
 21 22  1  0  0  0  0
 22 23  1  0  0  0  0
 23 24  1  0  0  0  0
 24 25  1  0  0  0  0
 25 26  2  0  0  0  0
 25 27  1  0  0  0  0
 27 28  1  0  0  0  0
 28 29  1  0  0  0  0
 29 30  1  0  0  0  0
 30 31  1  0  0  0  0
 31 32  1  0  0  0  0
 32 33  1  0  0  0  0
 34 33  1  4  0  0  0
 34 35  2  0  0  0  0
 35 36  1  0  0  0  0
 36 37  1  0  0  0  0
 37 38  1  0  0  0  0
 38 39  1  0  0  0  0
 39 40  1  0  0  0  0
 40 41  1  0  0  0  0
 41 42  1  0  0  0  0
 42 43  1  0  0  0  0
 22 44  1  0  0  0  0
 44 45  1  0  0  0  0
 45 46  1  0  0  0  0
 46 47  2  0  0  0  0
 46 48  1  0  0  0  0
 48 49  1  0  0  0  0
 49 50  1  0  0  0  0
 50 51  1  0  0  0  0
 51 52  1  0  0  0  0
 52 53  1  0  0  0  0
 53 54  1  0  0  0  0
 55 54  1  4  0  0  0
 55 56  2  0  0  0  0
 56 57  1  0  0  0  0
 57 58  1  0  0  0  0
 58 59  1  0  0  0  0
 59 60  1  0  0  0  0
 60 61  1  0  0  0  0
 61 62  1  0  0  0  0
 62 63  1  0  0  0  0
 63 64  1  0  0  0  0
 22 65  1  0  0  0  0
 65 66  1  0  0  0  0
 66 67  1  0  0  0  0
 67 68  2  0  0  0  0
 67 69  1  0  0  0  0
 69 70  1  0  0  0  0
 70 71  1  0  0  0  0
 71 72  1  0  0  0  0
 72 73  1  0  0  0  0
 73 74  1  0  0  0  0
 74 75  1  0  0  0  0
 76 75  1  4  0  0  0
 76 77  2  0  0  0  0
 77 78  1  0  0  0  0
 78 79  1  0  0  0  0
 79 80  1  0  0  0  0
 80 81  1  0  0  0  0
 81 82  1  0  0  0  0
 82 83  1  0  0  0  0
 83 84  1  0  0  0  0
 84 85  1  0  0  0  0
M  END
> <RowID>
1236

> <Original_SMILES>
CCCCCCCCC=CCCCCCCCC(=O)OCC(COC(=O)CCCCCCCC=CCCCCCCCC)(COC(=O)CCCCCCCC=CCCCCCCCC)COC(=O)CCCCCCCC=CCCCCCCCC

> <Canonical_QSARr>
CCCCCCCCC=CCCCCCCCC(=O)OCC(COC(=O)CCCCCCCC=CCCCCCCCC)(COC(=O)CCCCCCCC=CCCCCCCCC)COC(=O)CCCCCCCC=CCCCCCCCC

> <InChI_Code_QSARr>
InChI=1S/C77H140O8/c1-5-9-13-17-21-25-29-33-37-41-45-49-53-57-61-65-73(78)82-69-77(70-83-74(79)66-62-58-54-50-46-42-38-34-30-26-22-18-14-10-6-2,71-84-75(80)67-63-59-55-51-47-43-39-35-31-27-23-19-15-11-7-3)72-85-76(81)68-64-60-56-52-48-44-40-36-32-28-24-20-16-12-8-4/h33-40H,5-32,41-72H2,1-4H3

> <InChI Key_QSARr>
QTIMEBJTEBWHOB-UHFFFAOYSA-N

> <Salt_Solvent>


> <Salt_Solvent_ID>
0

> <Number of connected components>
1

$$$$
Molecule_1237
  Mrv2316 01072400032D          

 25 27  0  0  0  0            999 V2000
   -3.5724    2.1615    0.0000 C   0  0  0  0  0  0  0  0  0  0  0  0
   -3.5724    1.3365    0.0000 O   0  0  0  0  0  0  0  0  0  0  0  0
   -2.8579    0.9240    0.0000 C   0  0  0  0  0  0  0  0  0  0  0  0
   -2.8579    0.0990    0.0000 C   0  0  0  0  0  0  0  0  0  0  0  0
   -2.1434   -0.3135    0.0000 C   0  0  0  0  0  0  0  0  0  0  0  0
   -2.1434   -1.1385    0.0000 O   0  0  0  0  0  0  0  0  0  0  0  0
   -1.4289   -1.5510    0.0000 C   0  0  0  0  0  0  0  0  0  0  0  0
   -1.4289    0.0990    0.0000 C   0  0  0  0  0  0  0  0  0  0  0  0
   -0.7145   -0.3135    0.0000 N   0  0  0  0  0  0  0  0  0  0  0  0
   -0.0000    0.0990    0.0000 C   0  0  0  0  0  0  0  0  0  0  0  0
   -0.0000    0.9240    0.0000 O   0  0  0  0  0  0  0  0  0  0  0  0
    0.7145   -0.3135    0.0000 C   0  0  0  0  0  0  0  0  0  0  0  0
    1.4289    0.0990    0.0000 C   0  0  0  0  0  0  0  0  0  0  0  0
    2.1434   -0.3135    0.0000 C   0  0  0  0  0  0  0  0  0  0  0  0
    2.8579    0.0990    0.0000 C   0  0  0  0  0  0  0  0  0  0  0  0
    3.5724   -0.3135    0.0000 C   0  0  0  0  0  0  0  0  0  0  0  0
    3.5724   -1.1385    0.0000 C   0  0  0  0  0  0  0  0  0  0  0  0
    2.8579   -1.5510    0.0000 C   0  0  0  0  0  0  0  0  0  0  0  0
    2.1434   -1.1385    0.0000 C   0  0  0  0  0  0  0  0  0  0  0  0
    1.4289   -1.5510    0.0000 C   0  0  0  0  0  0  0  0  0  0  0  0
    0.7145   -1.1385    0.0000 C   0  0  0  0  0  0  0  0  0  0  0  0
   -0.0000   -1.5510    0.0000 O   0  0  0  0  0  0  0  0  0  0  0  0
   -1.4289    0.9240    0.0000 C   0  0  0  0  0  0  0  0  0  0  0  0
   -2.1434    1.3365    0.0000 C   0  0  0  0  0  0  0  0  0  0  0  0
   -2.1434    2.1615    0.0000 Cl  0  0  0  0  0  0  0  0  0  0  0  0
  1  2  1  0  0  0  0
  2  3  1  0  0  0  0
  4  3  2  0  0  0  0
  5  4  1  0  0  0  0
  5  6  1  0  0  0  0
  6  7  1  0  0  0  0
  8  5  2  0  0  0  0
  8  9  1  0  0  0  0
  9 10  1  0  0  0  0
 10 11  2  0  0  0  0
 10 12  1  0  0  0  0
 13 12  1  0  0  0  0
 14 13  2  0  0  0  0
 14 15  1  0  0  0  0
 15 16  2  0  0  0  0
 16 17  1  0  0  0  0
 17 18  2  0  0  0  0
 18 19  1  0  0  0  0
 19 14  1  0  0  0  0
 20 19  2  0  0  0  0
 21 20  1  0  0  0  0
 12 21  2  0  0  0  0
 21 22  1  0  0  0  0
 23  8  1  0  0  0  0
 24 23  2  0  0  0  0
  3 24  1  0  0  0  0
 24 25  1  0  0  0  0
M  END
> <RowID>
1237

> <Original_SMILES>
COC1=CC(OC)=C(C=C1Cl)NC(=O)C1C=C2C=CC=CC2=CC=1O

> <Canonical_QSARr>
COC1=CC(OC)=C(C=C1Cl)NC(=O)C1C=C2C=CC=CC2=CC=1O

> <InChI_Code_QSARr>
InChI=1S/C19H16ClNO4/c1-24-17-10-18(25-2)15(9-14(17)20)21-19(23)13-7-11-5-3-4-6-12(11)8-16(13)22/h3-10,22H,1-2H3,(H,21,23)

> <InChI Key_QSARr>
XDWATWCCUTYUDE-UHFFFAOYSA-N

> <Salt_Solvent>


> <Salt_Solvent_ID>
0

> <Number of connected components>
1

$$$$
Molecule_1238
  Mrv2316 01072400032D          

 14 14  0  0  0  0            999 V2000
   -0.1021   -2.4750    0.0000 C   0  0  0  0  0  0  0  0  0  0  0  0
   -0.1021   -1.6500    0.0000 O   0  0  0  0  0  0  0  0  0  0  0  0
    0.6124   -1.2375    0.0000 C   0  0  0  0  0  0  0  0  0  0  0  0
    1.3269   -1.6500    0.0000 O   0  0  0  0  0  0  0  0  0  0  0  0
    0.6124   -0.4125    0.0000 C   0  0  0  0  0  0  0  0  0  0  0  0
    1.3269    0.0000    0.0000 C   0  0  0  0  0  0  0  0  0  0  0  0
    1.3269    0.8250    0.0000 C   0  0  0  0  0  0  0  0  0  0  0  0
    0.6124    1.2375    0.0000 C   0  0  0  0  0  0  0  0  0  0  0  0
    0.6124    2.0625    0.0000 C   0  0  0  0  0  0  0  0  0  0  0  0
   -0.1021    2.4750    0.0000 O   0  0  0  0  0  0  0  0  0  0  0  0
    1.3269    2.4750    0.0000 O   0  0  0  0  0  0  0  0  0  0  0  0
    1.3269    3.3000    0.0000 C   0  0  0  0  0  0  0  0  0  0  0  0
   -0.1021    0.8250    0.0000 C   0  0  0  0  0  0  0  0  0  0  0  0
   -0.1021    0.0000    0.0000 C   0  0  0  0  0  0  0  0  0  0  0  0
  1  2  1  0  0  0  0
  2  3  1  0  0  0  0
  3  4  2  0  0  0  0
  3  5  1  0  0  0  0
  6  5  1  0  0  0  0
  7  6  2  0  0  0  0
  8  7  1  0  0  0  0
  8  9  1  0  0  0  0
  9 10  2  0  0  0  0
  9 11  1  0  0  0  0
 11 12  1  0  0  0  0
 13  8  2  0  0  0  0
 14 13  1  0  0  0  0
  5 14  2  0  0  0  0
M  END
> <RowID>
1238

> <Original_SMILES>
COC(=O)C1C=CC(=CC=1)C(=O)OC

> <Canonical_QSARr>
COC(=O)C1C=CC(=CC=1)C(=O)OC

> <InChI_Code_QSARr>
InChI=1S/C10H10O4/c1-13-9(11)7-3-5-8(6-4-7)10(12)14-2/h3-6H,1-2H3

> <InChI Key_QSARr>
WOZVHXUHUFLZGK-UHFFFAOYSA-N

> <Salt_Solvent>


> <Salt_Solvent_ID>
0

> <Number of connected components>
1

$$$$
Molecule_1239
  Mrv2316 01072400032D          

 34 34  0  0  0  0            999 V2000
    1.3659    4.6952    0.0000 C   0  0  0  0  0  0  0  0  0  0  0  0
    1.3659    3.8702    0.0000 C   0  0  0  0  0  0  0  0  0  0  0  0
    2.0804    3.4577    0.0000 O   0  0  0  0  0  0  0  0  0  0  0  0
    0.6514    3.4577    0.0000 N   0  0  0  0  0  0  0  0  0  0  0  0
   -0.0630    3.8702    0.0000 C   0  0  0  0  0  0  0  0  0  0  0  0
   -0.0630    4.6952    0.0000 C   0  0  0  0  0  0  0  0  0  0  0  0
    0.6514    5.1077    0.0000 O   0  0  0  0  0  0  0  0  0  0  0  0
   -0.7775    5.1077    0.0000 C   0  0  0  0  0  0  0  0  0  0  0  0
   -0.7775    5.9327    0.0000 O   0  0  0  0  0  0  0  0  0  0  0  0
    0.6514    2.6327    0.0000 C   0  0  0  0  0  0  0  0  0  0  0  0
   -0.0630    2.2202    0.0000 C   0  0  0  0  0  0  0  0  0  0  0  0
   -0.7775    2.6327    0.0000 I   0  0  0  0  0  0  0  0  0  0  0  0
   -0.0630    1.3952    0.0000 C   0  0  0  0  0  0  0  0  0  0  0  0
   -0.7775    0.9827    0.0000 C   0  0  0  0  0  0  0  0  0  0  0  0
   -0.7775    0.1577    0.0000 O   0  0  0  0  0  0  0  0  0  0  0  0
   -1.4920    1.3952    0.0000 N   0  0  0  0  0  0  0  0  0  0  0  0
   -2.2065    0.9827    0.0000 C   0  0  0  0  0  0  0  0  0  0  0  0
   -2.9209    1.3952    0.0000 C   0  0  0  0  0  0  0  0  0  0  0  0
   -2.9209    2.2202    0.0000 O   0  0  0  0  0  0  0  0  0  0  0  0
   -3.6354    0.9827    0.0000 C   0  0  0  0  0  0  0  0  0  0  0  0
   -4.3499    1.3952    0.0000 O   0  0  0  0  0  0  0  0  0  0  0  0
    0.6514    0.9827    0.0000 C   0  0  0  0  0  0  0  0  0  0  0  0
    0.6514    0.1577    0.0000 I   0  0  0  0  0  0  0  0  0  0  0  0
    1.3659    1.3952    0.0000 C   0  0  0  0  0  0  0  0  0  0  0  0
    2.0804    0.9827    0.0000 C   0  0  0  0  0  0  0  0  0  0  0  0
    2.0804    0.1577    0.0000 O   0  0  0  0  0  0  0  0  0  0  0  0
    2.7948    1.3952    0.0000 N   0  0  0  0  0  0  0  0  0  0  0  0
    3.5093    0.9827    0.0000 C   0  0  0  0  0  0  0  0  0  0  0  0
    4.2238    1.3952    0.0000 C   0  0  0  0  0  0  0  0  0  0  0  0
    4.2238    2.2202    0.0000 O   0  0  0  0  0  0  0  0  0  0  0  0
    4.9383    0.9827    0.0000 C   0  0  0  0  0  0  0  0  0  0  0  0
    4.9383    0.1577    0.0000 O   0  0  0  0  0  0  0  0  0  0  0  0
    1.3659    2.2202    0.0000 C   0  0  0  0  0  0  0  0  0  0  0  0
    2.0804    2.6327    0.0000 I   0  0  0  0  0  0  0  0  0  0  0  0
  1  2  1  0  0  0  0
  2  3  2  0  0  0  0
  2  4  1  0  0  0  0
  4  5  1  0  0  0  0
  5  6  1  0  0  0  0
  6  7  1  0  0  0  0
  6  8  1  0  0  0  0
  8  9  1  0  0  0  0
  4 10  1  0  0  0  0
 11 10  1  0  0  0  0
 11 12  1  0  0  0  0
 13 11  2  0  0  0  0
 13 14  1  0  0  0  0
 14 15  2  0  0  0  0
 14 16  1  0  0  0  0
 16 17  1  0  0  0  0
 17 18  1  0  0  0  0
 18 19  1  0  0  0  0
 18 20  1  0  0  0  0
 20 21  1  0  0  0  0
 22 13  1  0  0  0  0
 22 23  1  0  0  0  0
 24 22  2  0  0  0  0
 24 25  1  0  0  0  0
 25 26  2  0  0  0  0
 25 27  1  0  0  0  0
 27 28  1  0  0  0  0
 28 29  1  0  0  0  0
 29 30  1  0  0  0  0
 29 31  1  0  0  0  0
 31 32  1  0  0  0  0
 33 24  1  0  0  0  0
 10 33  2  0  0  0  0
 33 34  1  0  0  0  0
M  END
> <RowID>
1239

> <Original_SMILES>
CC(=O)N(CC(O)CO)C1C(I)=C(C(I)=C(C=1I)C(=O)NCC(O)CO)C(=O)NCC(O)CO

> <Canonical_QSARr>
CC(=O)N(CC(O)CO)C1C(I)=C(C(I)=C(C=1I)C(=O)NCC(O)CO)C(=O)NCC(O)CO

> <InChI_Code_QSARr>
InChI=1S/C19H26I3N3O9/c1-8(29)25(4-11(32)7-28)17-15(21)12(18(33)23-2-9(30)5-26)14(20)13(16(17)22)19(34)24-3-10(31)6-27/h9-11,26-28,30-32H,2-7H2,1H3,(H,23,33)(H,24,34)

> <InChI Key_QSARr>
NTHXOOBQLCIOLC-UHFFFAOYSA-N

> <Salt_Solvent>


> <Salt_Solvent_ID>
0

> <Number of connected components>
1

$$$$
Molecule_1240
  Mrv2316 01072400032D          

  8  8  0  0  0  0            999 V2000
   -0.7145    1.2375    0.0000 N   0  0  0  0  0  0  0  0  0  0  0  0
   -0.0000    0.8250    0.0000 C   0  0  0  0  0  0  0  0  0  0  0  0
   -0.0000   -0.0000    0.0000 C   0  0  0  0  0  0  0  0  0  0  0  0
    0.7145   -0.4125    0.0000 C   0  0  0  0  0  0  0  0  0  0  0  0
    1.4289   -0.0000    0.0000 C   0  0  0  0  0  0  0  0  0  0  0  0
    1.4289    0.8250    0.0000 C   0  0  0  0  0  0  0  0  0  0  0  0
    0.7145    1.2375    0.0000 C   0  0  0  0  0  0  0  0  0  0  0  0
    0.7145    2.0625    0.0000 O   0  0  0  0  0  0  0  0  0  0  0  0
  1  2  1  0  0  0  0
  3  2  1  0  0  0  0
  4  3  2  0  0  0  0
  5  4  1  0  0  0  0
  6  5  2  0  0  0  0
  7  6  1  0  0  0  0
  2  7  2  0  0  0  0
  7  8  1  0  0  0  0
M  END
> <RowID>
1240

> <Original_SMILES>
NC1C=CC=CC=1O

> <Canonical_QSARr>
NC1C=CC=CC=1O

> <InChI_Code_QSARr>
InChI=1S/C6H7NO/c7-5-3-1-2-4-6(5)8/h1-4,8H,7H2

> <InChI Key_QSARr>
CDAWCLOXVUBKRW-UHFFFAOYSA-N

> <Salt_Solvent>


> <Salt_Solvent_ID>
0

> <Number of connected components>
1

$$$$
Molecule_1241
  Mrv2316 01072400032D          

 38 37  0  0  0  0            999 V2000
    5.6117   10.6652    0.0000 C   0  0  0  0  0  0  0  0  0  0  0  0
    5.6117    9.8402    0.0000 C   0  0  0  0  0  0  0  0  0  0  0  0
    6.3262    9.4277    0.0000 C   0  0  0  0  0  0  0  0  0  0  0  0
    6.3262    8.6027    0.0000 C   0  0  0  0  0  0  0  0  0  0  0  0
    7.0407    8.1902    0.0000 C   0  0  0  0  0  0  0  0  0  0  0  0
    7.0407    7.3652    0.0000 C   0  0  0  0  0  0  0  0  0  0  0  0
    7.7552    6.9527    0.0000 C   0  0  0  0  0  0  0  0  0  0  0  0
    8.4696    7.3652    0.0000 C   0  0  0  0  0  0  0  0  0  0  0  0
    9.1841    6.9527    0.0000 C   0  0  0  0  0  0  0  0  0  0  0  0
    9.1841    6.1277    0.0000 C   0  0  0  0  0  0  0  0  0  0  0  0
    9.8986    5.7152    0.0000 C   0  0  0  0  0  0  0  0  0  0  0  0
   10.6130    6.1277    0.0000 C   0  0  0  0  0  0  0  0  0  0  0  0
   11.3275    5.7152    0.0000 C   0  0  0  0  0  0  0  0  0  0  0  0
   12.0420    6.1277    0.0000 C   0  0  0  0  0  0  0  0  0  0  0  0
   12.7565    5.7152    0.0000 C   0  0  0  0  0  0  0  0  0  0  0  0
   13.4709    6.1277    0.0000 C   0  0  0  0  0  0  0  0  0  0  0  0
   14.1854    5.7152    0.0000 C   0  0  0  0  0  0  0  0  0  0  0  0
   14.8999    6.1277    0.0000 C   0  0  0  0  0  0  0  0  0  0  0  0
   14.8999    6.9527    0.0000 O   0  0  0  0  0  0  0  0  0  0  0  0
   15.6143    5.7152    0.0000 O   0  0  0  0  0  0  0  0  0  0  0  0
   16.3288    6.1277    0.0000 C   0  0  0  0  0  0  0  0  0  0  0  0
   17.0433    5.7152    0.0000 C   0  0  0  0  0  0  0  0  0  0  0  0
   17.7578    6.1277    0.0000 C   0  0  0  0  0  0  0  0  0  0  0  0
   18.4722    5.7152    0.0000 C   0  0  0  0  0  0  0  0  0  0  0  0
   19.1867    6.1277    0.0000 C   0  0  0  0  0  0  0  0  0  0  0  0
   19.9012    5.7152    0.0000 C   0  0  0  0  0  0  0  0  0  0  0  0
   20.6156    6.1277    0.0000 C   0  0  0  0  0  0  0  0  0  0  0  0
   21.3301    5.7152    0.0000 C   0  0  0  0  0  0  0  0  0  0  0  0
   22.0446    6.1277    0.0000 C   0  0  0  0  0  0  0  0  0  0  0  0
   22.7590    5.7152    0.0000 C   0  0  0  0  0  0  0  0  0  0  0  0
   23.4735    6.1277    0.0000 C   0  0  0  0  0  0  0  0  0  0  0  0
   24.1880    5.7152    0.0000 C   0  0  0  0  0  0  0  0  0  0  0  0
   24.1880    4.8902    0.0000 C   0  0  0  0  0  0  0  0  0  0  0  0
   24.9025    4.4777    0.0000 C   0  0  0  0  0  0  0  0  0  0  0  0
   24.9025    3.6527    0.0000 C   0  0  0  0  0  0  0  0  0  0  0  0
   25.6169    3.2402    0.0000 C   0  0  0  0  0  0  0  0  0  0  0  0
   25.6169    2.4152    0.0000 C   0  0  0  0  0  0  0  0  0  0  0  0
   26.3314    2.0027    0.0000 C   0  0  0  0  0  0  0  0  0  0  0  0
  1  2  1  0  0  0  0
  2  3  1  0  0  0  0
  3  4  1  0  0  0  0
  4  5  1  0  0  0  0
  5  6  1  0  0  0  0
  6  7  1  0  0  0  0
  7  8  1  0  0  0  0
  9  8  1  4  0  0  0
  9 10  2  0  0  0  0
 10 11  1  0  0  0  0
 11 12  1  0  0  0  0
 12 13  1  0  0  0  0
 13 14  1  0  0  0  0
 14 15  1  0  0  0  0
 15 16  1  0  0  0  0
 16 17  1  0  0  0  0
 17 18  1  0  0  0  0
 18 19  2  0  0  0  0
 18 20  1  0  0  0  0
 20 21  1  0  0  0  0
 21 22  1  0  0  0  0
 22 23  1  0  0  0  0
 23 24  1  0  0  0  0
 24 25  1  0  0  0  0
 25 26  1  0  0  0  0
 26 27  1  0  0  0  0
 27 28  1  0  0  0  0
 29 28  1  4  0  0  0
 29 30  2  0  0  0  0
 30 31  1  0  0  0  0
 31 32  1  0  0  0  0
 32 33  1  0  0  0  0
 33 34  1  0  0  0  0
 34 35  1  0  0  0  0
 35 36  1  0  0  0  0
 36 37  1  0  0  0  0
 37 38  1  0  0  0  0
M  END
> <RowID>
1241

> <Original_SMILES>
CCCCCCCCC=CCCCCCCCC(=O)OCCCCCCCCC=CCCCCCCCC

> <Canonical_QSARr>
CCCCCCCCC=CCCCCCCCC(=O)OCCCCCCCCC=CCCCCCCCC

> <InChI_Code_QSARr>
InChI=1S/C36H68O2/c1-3-5-7-9-11-13-15-17-19-21-23-25-27-29-31-33-35-38-36(37)34-32-30-28-26-24-22-20-18-16-14-12-10-8-6-4-2/h17-20H,3-16,21-35H2,1-2H3

> <InChI Key_QSARr>
BARWIPMJPCRCTP-UHFFFAOYSA-N

> <Salt_Solvent>


> <Salt_Solvent_ID>
0

> <Number of connected components>
1

$$$$
Molecule_1242
  Mrv2316 01072400032D          

 22 21  0  0  0  0            999 V2000
    9.1855    6.1283    0.0000 C   0  0  0  0  0  0  0  0  0  0  0  0
    9.9000    5.7158    0.0000 C   0  0  0  0  0  0  0  0  0  0  0  0
   10.6145    6.1283    0.0000 C   0  0  0  0  0  0  0  0  0  0  0  0
   11.3289    5.7158    0.0000 C   0  0  0  0  0  0  0  0  0  0  0  0
   12.0434    6.1283    0.0000 C   0  0  0  0  0  0  0  0  0  0  0  0
   12.7579    5.7158    0.0000 C   0  0  0  0  0  0  0  0  0  0  0  0
   13.4723    6.1283    0.0000 O   0  0  0  0  0  0  0  0  0  0  0  0
   14.1868    5.7158    0.0000 C   0  0  0  0  0  0  0  0  0  0  0  0
   14.1868    4.8908    0.0000 O   0  0  0  0  0  0  0  0  0  0  0  0
   14.9013    6.1283    0.0000 C   0  0  0  0  0  0  0  0  0  0  0  0
   15.6158    5.7158    0.0000 C   0  0  0  0  0  0  0  0  0  0  0  0
   16.3302    6.1283    0.0000 C   0  0  0  0  0  0  0  0  0  0  0  0
   17.0447    5.7158    0.0000 C   0  0  0  0  0  0  0  0  0  0  0  0
   17.7592    6.1283    0.0000 C   0  0  0  0  0  0  0  0  0  0  0  0
   18.4736    5.7158    0.0000 C   0  0  0  0  0  0  0  0  0  0  0  0
   19.1881    6.1283    0.0000 C   0  0  0  0  0  0  0  0  0  0  0  0
   19.9026    5.7158    0.0000 C   0  0  0  0  0  0  0  0  0  0  0  0
   20.6171    6.1283    0.0000 C   0  0  0  0  0  0  0  0  0  0  0  0
   21.3315    5.7158    0.0000 C   0  0  0  0  0  0  0  0  0  0  0  0
   22.0460    6.1283    0.0000 C   0  0  0  0  0  0  0  0  0  0  0  0
   12.0434    6.9533    0.0000 C   0  0  0  0  0  0  0  0  0  0  0  0
   12.7579    7.3658    0.0000 C   0  0  0  0  0  0  0  0  0  0  0  0
  1  2  1  0  0  0  0
  2  3  1  0  0  0  0
  3  4  1  0  0  0  0
  4  5  1  0  0  0  0
  5  6  1  0  0  0  0
  6  7  1  0  0  0  0
  7  8  1  0  0  0  0
  8  9  2  0  0  0  0
  8 10  1  0  0  0  0
 10 11  1  0  0  0  0
 11 12  1  0  0  0  0
 12 13  1  0  0  0  0
 13 14  1  0  0  0  0
 14 15  1  0  0  0  0
 15 16  1  0  0  0  0
 16 17  1  0  0  0  0
 17 18  1  0  0  0  0
 18 19  1  0  0  0  0
 19 20  1  0  0  0  0
  5 21  1  0  0  0  0
 21 22  1  0  0  0  0
M  END
> <RowID>
1242

> <Original_SMILES>
CCCCC(COC(=O)CCCCCCCCCCC)CC

> <Canonical_QSARr>
CCCCC(COC(=O)CCCCCCCCCCC)CC

> <InChI_Code_QSARr>
InChI=1S/C20H40O2/c1-4-7-9-10-11-12-13-14-15-17-20(21)22-18-19(6-3)16-8-5-2/h19H,4-18H2,1-3H3

> <InChI Key_QSARr>
LWLRMRFJCCMNML-UHFFFAOYSA-N

> <Salt_Solvent>


> <Salt_Solvent_ID>
0

> <Number of connected components>
1

$$$$
Molecule_1243
  Mrv2316 01072400032D          

 42 47  0  0  0  0            999 V2000
    1.4289   -3.3000    0.0000 O   0  0  0  0  0  0  0  0  0  0  0  0
    0.7145   -2.8875    0.0000 S   0  0  0  0  0  0  0  0  0  0  0  0
    1.1270   -2.1730    0.0000 O   0  0  0  0  0  0  0  0  0  0  0  0
    0.3020   -3.6020    0.0000 O   0  0  0  0  0  0  0  0  0  0  0  0
    0.0000   -2.4750    0.0000 C   0  0  0  0  0  0  0  0  0  0  0  0
   -0.7145   -2.8875    0.0000 C   0  0  0  0  0  0  0  0  0  0  0  0
   -0.7145   -3.7125    0.0000 N   0  0  0  0  0  0  0  0  0  0  0  0
   -1.4289   -2.4750    0.0000 C   0  0  0  0  0  0  0  0  0  0  0  0
   -2.1434   -2.8875    0.0000 C   0  0  0  0  0  0  0  0  0  0  0  0
   -2.8579   -2.4750    0.0000 C   0  0  0  0  0  0  0  0  0  0  0  0
   -2.8579   -1.6500    0.0000 C   0  0  0  0  0  0  0  0  0  0  0  0
   -2.1434   -1.2375    0.0000 C   0  0  0  0  0  0  0  0  0  0  0  0
   -2.1434   -0.4125    0.0000 O   0  0  0  0  0  0  0  0  0  0  0  0
   -1.4289   -1.6500    0.0000 C   0  0  0  0  0  0  0  0  0  0  0  0
   -0.7145   -1.2375    0.0000 C   0  0  0  0  0  0  0  0  0  0  0  0
   -0.7145   -0.4125    0.0000 C   0  0  0  0  0  0  0  0  0  0  0  0
   -1.4289    0.0000    0.0000 C   0  0  0  0  0  0  0  0  0  0  0  0
   -1.4289    0.8250    0.0000 C   0  0  0  0  0  0  0  0  0  0  0  0
   -2.1434    1.2375    0.0000 S   0  0  0  0  0  0  0  0  0  0  0  0
   -2.8579    1.6500    0.0000 O   0  0  0  0  0  0  0  0  0  0  0  0
   -1.7309    1.9520    0.0000 O   0  0  0  0  0  0  0  0  0  0  0  0
   -2.5559    0.5230    0.0000 O   0  0  0  0  0  0  0  0  0  0  0  0
   -0.7145    1.2375    0.0000 C   0  0  0  0  0  0  0  0  0  0  0  0
   -0.7145    2.0625    0.0000 N   0  0  0  0  0  0  0  0  0  0  0  0
    0.0000    0.8250    0.0000 C   0  0  0  0  0  0  0  0  0  0  0  0
    0.7145    1.2375    0.0000 C   0  0  0  0  0  0  0  0  0  0  0  0
    1.4289    0.8250    0.0000 C   0  0  0  0  0  0  0  0  0  0  0  0
    1.4289    0.0000    0.0000 C   0  0  0  0  0  0  0  0  0  0  0  0
    0.7145   -0.4125    0.0000 C   0  0  0  0  0  0  0  0  0  0  0  0
    0.7145   -1.2375    0.0000 O   0  0  0  0  0  0  0  0  0  0  0  0
    0.0000    0.0000    0.0000 C   0  0  0  0  0  0  0  0  0  0  0  0
    2.1434   -0.4125    0.0000 C   0  0  0  0  0  0  0  0  0  0  0  0
    2.8579    0.0000    0.0000 C   0  0  0  0  0  0  0  0  0  0  0  0
    2.8579    0.8250    0.0000 C   0  0  0  0  0  0  0  0  0  0  0  0
    2.1434    1.2375    0.0000 C   0  0  0  0  0  0  0  0  0  0  0  0
    0.7145    2.0625    0.0000 O   0  0  0  0  0  0  0  0  0  0  0  0
    0.0000   -1.6500    0.0000 C   0  0  0  0  0  0  0  0  0  0  0  0
   -3.5724   -1.2375    0.0000 C   0  0  0  0  0  0  0  0  0  0  0  0
   -4.2868   -1.6500    0.0000 C   0  0  0  0  0  0  0  0  0  0  0  0
   -4.2868   -2.4750    0.0000 C   0  0  0  0  0  0  0  0  0  0  0  0
   -3.5724   -2.8875    0.0000 C   0  0  0  0  0  0  0  0  0  0  0  0
   -2.1434   -3.7125    0.0000 O   0  0  0  0  0  0  0  0  0  0  0  0
  1  2  1  0  0  0  0
  2  3  2  0  0  0  0
  2  4  2  0  0  0  0
  2  5  1  0  0  0  0
  6  5  1  0  0  0  0
  6  7  1  0  0  0  0
  8  6  2  0  0  0  0
  8  9  1  0  0  0  0
  9 10  1  0  0  0  0
 11 10  2  0  0  0  0
 11 12  1  0  0  0  0
 12 13  2  0  0  0  0
 12 14  1  0  0  0  0
 14  8  1  0  0  0  0
 15 14  2  0  0  0  0
 15 16  1  0  0  0  0
 17 16  2  0  0  0  0
 18 17  1  0  0  0  0
 18 19  1  0  0  0  0
 19 20  1  0  0  0  0
 19 21  2  0  0  0  0
 19 22  2  0  0  0  0
 23 18  2  0  0  0  0
 23 24  1  0  0  0  0
 25 23  1  0  0  0  0
 25 26  1  0  0  0  0
 26 27  1  0  0  0  0
 28 27  2  0  0  0  0
 28 29  1  0  0  0  0
 29 30  2  0  0  0  0
 29 31  1  0  0  0  0
 16 31  1  0  0  0  0
 31 25  2  0  0  0  0
 32 28  1  0  0  0  0
 33 32  2  0  0  0  0
 34 33  1  0  0  0  0
 35 34  2  0  0  0  0
 27 35  1  0  0  0  0
 26 36  2  0  0  0  0
 37 15  1  0  0  0  0
  5 37  2  0  0  0  0
 38 11  1  0  0  0  0
 39 38  2  0  0  0  0
 40 39  1  0  0  0  0
 41 40  2  0  0  0  0
 10 41  1  0  0  0  0
  9 42  2  0  0  0  0
M  END
> <RowID>
1243

> <Original_SMILES>
[Na+].[Na+].NC1C2=C(C(=CC=1S([O-])(=O)=O)C1C=C(C(N)=C3C=1C(=O)C1C=CC=CC=1C3=O)S([O-])(=O)=O)C(=O)C1=CC=CC=C1C2=O

> <Canonical_QSARr>
NC1C2=C(C(=CC=1S(O)(=O)=O)C1C=C(C(N)=C3C=1C(=O)C1C=CC=CC=1C3=O)S(O)(=O)=O)C(=O)C1C=CC=CC=1C2=O

> <InChI_Code_QSARr>
InChI=1S/C28H16N2O10S2/c29-23-17(41(35,36)37)9-15(19-21(23)27(33)13-7-3-1-5-11(13)25(19)31)16-10-18(42(38,39)40)24(30)22-20(16)26(32)12-6-2-4-8-14(12)28(22)34/h1-10H,29-30H2,(H,35,36,37)(H,38,39,40)

> <InChI Key_QSARr>
HMHNPBXGEXSGLR-UHFFFAOYSA-N

> <Salt_Solvent>
[Na+]

> <Salt_Solvent_ID>
110

> <Number of connected components>
3

$$$$
Molecule_1244
  Mrv2316 01072400032D          

 12 13  0  0  0  0            999 V2000
    1.4289   -2.4750    0.0000 O   0  0  0  0  0  0  0  0  0  0  0  0
    1.4289   -1.6500    0.0000 C   0  0  0  0  0  0  0  0  0  0  0  0
    0.7145   -1.2375    0.0000 O   0  0  0  0  0  0  0  0  0  0  0  0
    0.7145   -0.4125    0.0000 C   0  0  0  0  0  0  0  0  0  0  0  0
    0.0000   -0.0000    0.0000 O   0  0  0  0  0  0  0  0  0  0  0  0
    1.4289   -0.0000    0.0000 N   0  0  0  0  0  0  0  0  0  0  0  0
    2.1434   -0.4125    0.0000 C   0  0  0  0  0  0  0  0  0  0  0  0
    2.8579   -0.0000    0.0000 C   0  0  0  0  0  0  0  0  0  0  0  0
    3.5724   -0.4125    0.0000 C   0  0  0  0  0  0  0  0  0  0  0  0
    3.5724   -1.2375    0.0000 C   0  0  0  0  0  0  0  0  0  0  0  0
    2.8579   -1.6500    0.0000 C   0  0  0  0  0  0  0  0  0  0  0  0
    2.1434   -1.2375    0.0000 C   0  0  0  0  0  0  0  0  0  0  0  0
  1  2  2  0  0  0  0
  3  2  1  0  0  0  0
  4  3  1  0  0  0  0
  4  5  2  0  0  0  0
  6  4  1  0  0  0  0
  7  6  1  0  0  0  0
  7  8  1  0  0  0  0
  8  9  2  0  0  0  0
  9 10  1  0  0  0  0
 10 11  2  0  0  0  0
 11 12  1  0  0  0  0
  2 12  1  0  0  0  0
 12  7  2  0  0  0  0
M  END
> <RowID>
1244

> <Original_SMILES>
O=C1OC(=O)NC2C=CC=CC1=2

> <Canonical_QSARr>
O=C1OC(=O)NC2C=CC=CC1=2

> <InChI_Code_QSARr>
InChI=1S/C8H5NO3/c10-7-5-3-1-2-4-6(5)9-8(11)12-7/h1-4H,(H,9,11)

> <InChI Key_QSARr>
TXJUTRJFNRYTHH-UHFFFAOYSA-N

> <Salt_Solvent>


> <Salt_Solvent_ID>
0

> <Number of connected components>
1

$$$$
Molecule_1245
  Mrv2316 01072400032D          

  6  5  0  0  0  0            999 V2000
   -0.1914   -0.7145    0.0000 C   0  0  0  0  0  0  0  0  0  0  0  0
    0.5230   -1.1270    0.0000 C   0  0  0  0  0  0  0  0  0  0  0  0
    1.2375   -0.7145    0.0000 C   0  0  0  0  0  0  0  0  0  0  0  0
    1.9520   -1.1270    0.0000 C   0  0  0  0  0  0  0  0  0  0  0  0
    2.6664   -0.7145    0.0000 C   0  0  0  0  0  0  0  0  0  0  0  0
    3.3809   -0.3020    0.0000 N   0  0  0  0  0  0  0  0  0  0  0  0
  1  2  1  0  0  0  0
  2  3  1  0  0  0  0
  3  4  1  0  0  0  0
  4  5  1  0  0  0  0
  5  6  3  0  0  0  0
M  END
> <RowID>
1245

> <Original_SMILES>
CCCCC#N

> <Canonical_QSARr>
CCCCC#N

> <InChI_Code_QSARr>
InChI=1S/C5H9N/c1-2-3-4-5-6/h2-4H2,1H3

> <InChI Key_QSARr>
RFFFKMOABOFIDF-UHFFFAOYSA-N

> <Salt_Solvent>


> <Salt_Solvent_ID>
0

> <Number of connected components>
1

$$$$
Molecule_1247
  Mrv2316 01072400032D          

  8  7  0  0  0  0            999 V2000
    1.7605    1.8414    0.0000 C   0  0  0  0  0  0  0  0  0  0  0  0
    2.4750    1.4289    0.0000 C   0  0  0  0  0  0  0  0  0  0  0  0
    3.1895    1.8414    0.0000 O   0  0  0  0  0  0  0  0  0  0  0  0
    3.9039    1.4289    0.0000 C   0  0  0  0  0  0  0  0  0  0  0  0
    3.9039    0.6039    0.0000 O   0  0  0  0  0  0  0  0  0  0  0  0
    4.6184    1.8414    0.0000 O   0  0  0  0  0  0  0  0  0  0  0  0
    5.3329    1.4289    0.0000 C   0  0  0  0  0  0  0  0  0  0  0  0
    6.0474    1.8414    0.0000 C   0  0  0  0  0  0  0  0  0  0  0  0
  1  2  1  0  0  0  0
  2  3  1  0  0  0  0
  3  4  1  0  0  0  0
  4  5  2  0  0  0  0
  4  6  1  0  0  0  0
  6  7  1  0  0  0  0
  7  8  1  0  0  0  0
M  END
> <RowID>
1247

> <Original_SMILES>
CCOC(=O)OCC

> <Canonical_QSARr>
CCOC(=O)OCC

> <InChI_Code_QSARr>
InChI=1S/C5H10O3/c1-3-7-5(6)8-4-2/h3-4H2,1-2H3

> <InChI Key_QSARr>
OIFBSDVPJOWBCH-UHFFFAOYSA-N

> <Salt_Solvent>


> <Salt_Solvent_ID>
0

> <Number of connected components>
1

$$$$
Molecule_1248
  Mrv2316 01072400032D          

 18 19  0  0  0  0            999 V2000
    0.7145    0.6875    0.0000 O   0  0  0  0  0  0  0  0  0  0  0  0
    0.7145   -0.1375    0.0000 C   0  0  0  0  0  0  0  0  0  0  0  0
    1.4289   -0.5500    0.0000 O   0  0  0  0  0  0  0  0  0  0  0  0
    2.1434   -0.1375    0.0000 C   0  0  0  0  0  0  0  0  0  0  0  0
    2.8579   -0.5500    0.0000 C   0  0  0  0  0  0  0  0  0  0  0  0
    3.5724   -0.1375    0.0000 C   0  0  0  0  0  0  0  0  0  0  0  0
    4.2868   -0.5500    0.0000 C   0  0  0  0  0  0  0  0  0  0  0  0
    4.2868   -1.3750    0.0000 C   0  0  0  0  0  0  0  0  0  0  0  0
    5.0013   -1.7875    0.0000 C   0  0  0  0  0  0  0  0  0  0  0  0
    5.7158   -1.3750    0.0000 C   0  0  0  0  0  0  0  0  0  0  0  0
    5.7158   -0.5500    0.0000 C   0  0  0  0  0  0  0  0  0  0  0  0
    5.0013   -0.1375    0.0000 C   0  0  0  0  0  0  0  0  0  0  0  0
    0.0000   -0.5500    0.0000 C   0  0  0  0  0  0  0  0  0  0  0  0
   -0.7145   -0.1375    0.0000 C   0  0  0  0  0  0  0  0  0  0  0  0
   -1.4289   -0.5500    0.0000 C   0  0  0  0  0  0  0  0  0  0  0  0
   -1.4289   -1.3750    0.0000 C   0  0  0  0  0  0  0  0  0  0  0  0
   -0.7145   -1.7875    0.0000 C   0  0  0  0  0  0  0  0  0  0  0  0
    0.0000   -1.3750    0.0000 C   0  0  0  0  0  0  0  0  0  0  0  0
  1  2  2  0  0  0  0
  2  3  1  0  0  0  0
  3  4  1  0  0  0  0
  4  5  1  0  0  0  0
  5  6  1  0  0  0  0
  6  7  1  0  0  0  0
  8  7  1  0  0  0  0
  9  8  2  0  0  0  0
 10  9  1  0  0  0  0
 11 10  2  0  0  0  0
 12 11  1  0  0  0  0
  7 12  2  0  0  0  0
  2 13  1  0  0  0  0
 14 13  1  0  0  0  0
 15 14  2  0  0  0  0
 16 15  1  0  0  0  0
 17 16  2  0  0  0  0
 18 17  1  0  0  0  0
 13 18  2  0  0  0  0
M  END
> <RowID>
1248

> <Original_SMILES>
O=C(OCCCC1C=CC=CC=1)C1C=CC=CC=1

> <Canonical_QSARr>
O=C(OCCCC1C=CC=CC=1)C1C=CC=CC=1

> <InChI_Code_QSARr>
InChI=1S/C16H16O2/c17-16(15-11-5-2-6-12-15)18-13-7-10-14-8-3-1-4-9-14/h1-6,8-9,11-12H,7,10,13H2

> <InChI Key_QSARr>
ONPVMQLRVWKFFL-UHFFFAOYSA-N

> <Salt_Solvent>


> <Salt_Solvent_ID>
0

> <Number of connected components>
1

$$$$
Molecule_1249
  Mrv2316 01072400032D          

 25 28  0  0  0  0            999 V2000
    1.2383   -3.6793    0.0000 C   0  0  0  0  0  0  0  0  0  0  0  0
    1.7447   -3.0280    0.0000 C   0  0  0  0  0  0  0  0  0  0  0  0
    1.4338   -2.2638    0.0000 O   0  0  0  0  0  0  0  0  0  0  0  0
    2.5619   -3.1408    0.0000 O   0  0  0  0  0  0  0  0  0  0  0  0
    3.0683   -2.4895    0.0000 C   0  0  0  0  0  0  0  0  0  0  0  0
    2.8390   -1.6970    0.0000 C   0  0  0  0  0  0  0  0  0  0  0  0
    3.5218   -1.2340    0.0000 C   0  0  0  0  0  0  0  0  0  0  0  0
    4.1731   -1.7404    0.0000 C   0  0  0  0  0  0  0  0  0  0  0  0
    4.3708   -0.9394    0.0000 C   0  0  0  0  0  0  0  0  0  0  0  0
    4.9853   -1.5952    0.0000 C   0  0  0  0  0  0  0  0  0  0  0  0
    5.2656   -0.8192    0.0000 C   0  0  0  0  0  0  0  0  0  0  0  0
    6.0777   -0.6740    0.0000 C   0  0  0  0  0  0  0  0  0  0  0  0
    6.6095   -1.3047    0.0000 C   0  0  0  0  0  0  0  0  0  0  0  0
    7.4216   -1.1595    0.0000 C   0  0  0  0  0  0  0  0  0  0  0  0
    7.9534   -1.7902    0.0000 C   0  0  0  0  0  0  0  0  0  0  0  0
    7.6731   -2.5662    0.0000 C   0  0  0  0  0  0  0  0  0  0  0  0
    6.8610   -2.7114    0.0000 C   0  0  0  0  0  0  0  0  0  0  0  0
    6.3292   -2.0807    0.0000 C   0  0  0  0  0  0  0  0  0  0  0  0
    5.5171   -2.2259    0.0000 C   0  0  0  0  0  0  0  0  0  0  0  0
    5.2368   -3.0018    0.0000 C   0  0  0  0  0  0  0  0  0  0  0  0
    4.4247   -3.1470    0.0000 C   0  0  0  0  0  0  0  0  0  0  0  0
    3.8928   -2.5163    0.0000 C   0  0  0  0  0  0  0  0  0  0  0  0
    3.5330   -3.2587    0.0000 C   0  0  0  0  0  0  0  0  0  0  0  0
    8.7655   -1.6450    0.0000 O   0  0  0  0  0  0  0  0  0  0  0  0
    9.0458   -0.8691    0.0000 C   0  0  0  0  0  0  0  0  0  0  0  0
  1  2  1  0  0  0  0
  2  3  2  0  0  0  0
  2  4  1  0  0  0  0
  4  5  1  0  0  0  0
  6  5  1  0  0  0  0
  7  6  1  0  0  0  0
  8  7  1  0  0  0  0
  8  9  1  0  0  0  0
  8 10  1  0  0  0  0
 11 10  1  0  0  0  0
 12 11  1  0  0  0  0
 13 12  1  0  0  0  0
 13 14  1  0  0  0  0
 14 15  2  0  0  0  0
 15 16  1  0  0  0  0
 16 17  2  0  0  0  0
 17 18  1  0  0  0  0
 18 13  2  0  0  0  0
 19 18  1  0  0  0  0
 10 19  1  0  0  0  0
 19 20  1  0  0  0  0
 20 21  1  0  0  0  0
 21 22  1  0  0  0  0
  5 22  1  0  0  0  0
 22  8  1  0  0  0  0
 22 23  1  0  0  0  0
 15 24  1  0  0  0  0
 24 25  1  0  0  0  0
M  END
> <RowID>
1249

> <Original_SMILES>
CC(=O)OC1CCC2(C)C3CCC4C=C(C=CC=4C3CCC21C)OC

> <Canonical_QSARr>
CC(=O)OC1CCC2(C)C3CCC4C=C(C=CC=4C3CCC21C)OC

> <InChI_Code_QSARr>
InChI=1S/C22H30O3/c1-14(23)25-20-10-12-21(2)19-8-5-15-13-16(24-4)6-7-17(15)18(19)9-11-22(20,21)3/h6-7,13,18-20H,5,8-12H2,1-4H3

> <InChI Key_QSARr>
GSWIRMJPZCMXSQ-UHFFFAOYSA-N

> <Salt_Solvent>


> <Salt_Solvent_ID>
0

> <Number of connected components>
1

$$$$
Molecule_1250
  Mrv2316 01072400032D          

 11 10  0  0  0  0            999 V2000
    3.7125    2.1434    0.0000 C   0  0  0  0  0  0  0  0  0  0  0  0
    3.3000    1.4289    0.0000 C   0  0  0  0  0  0  0  0  0  0  0  0
    3.7125    0.7145    0.0000 C   0  0  0  0  0  0  0  0  0  0  0  0
    2.4750    1.4289    0.0000 C   0  0  0  0  0  0  0  0  0  0  0  0
    2.0625    0.7145    0.0000 C   0  0  0  0  0  0  0  0  0  0  0  0
    1.2375    0.7145    0.0000 C   0  0  0  0  0  0  0  0  0  0  0  0
    0.8250   -0.0000    0.0000 C   0  0  0  0  0  0  0  0  0  0  0  0
    1.2375   -0.7145    0.0000 C   0  0  0  0  0  0  0  0  0  0  0  0
    0.0000   -0.0000    0.0000 C   0  0  0  0  0  0  0  0  0  0  0  0
   -0.4125   -0.7145    0.0000 C   0  0  0  0  0  0  0  0  0  0  0  0
   -0.8250   -1.4289    0.0000 N   0  0  0  0  0  0  0  0  0  0  0  0
  1  2  1  0  0  0  0
  2  3  1  0  0  0  0
  2  4  2  0  0  0  0
  4  5  1  0  0  0  0
  5  6  1  0  0  0  0
  6  7  1  0  0  0  0
  7  8  1  0  0  0  0
  7  9  2  0  0  0  0
  9 10  1  4  0  0  0
 10 11  3  0  0  0  0
M  END
> <RowID>
1250

> <Original_SMILES>
CC(C)=CCCC(C)=CC#N

> <Canonical_QSARr>
CC(C)=CCCC(C)=CC#N

> <InChI_Code_QSARr>
InChI=1S/C10H15N/c1-9(2)5-4-6-10(3)7-8-11/h5,7H,4,6H2,1-3H3

> <InChI Key_QSARr>
HLCSDJLATUNSSI-UHFFFAOYSA-N

> <Salt_Solvent>


> <Salt_Solvent_ID>
0

> <Number of connected components>
1

$$$$
Molecule_1251
  Mrv2316 01072400032D          

 16 16  0  0  0  0            999 V2000
   -0.1786   -3.1969    0.0000 C   0  0  0  0  0  0  0  0  0  0  0  0
   -0.1786   -2.3719    0.0000 C   0  0  0  0  0  0  0  0  0  0  0  0
   -0.8931   -1.9594    0.0000 O   0  0  0  0  0  0  0  0  0  0  0  0
    0.5359   -1.9594    0.0000 N   0  0  0  0  0  0  0  0  0  0  0  0
    0.5359   -1.1344    0.0000 C   0  0  0  0  0  0  0  0  0  0  0  0
    1.2503   -0.7219    0.0000 C   0  0  0  0  0  0  0  0  0  0  0  0
    1.2503    0.1031    0.0000 C   0  0  0  0  0  0  0  0  0  0  0  0
    0.5359    0.5156    0.0000 C   0  0  0  0  0  0  0  0  0  0  0  0
    0.5359    1.3406    0.0000 S   0  0  0  0  0  0  0  0  0  0  0  0
    1.3609    1.3406    0.0000 O   0  0  0  0  0  0  0  0  0  0  0  0
   -0.2891    1.3406    0.0000 O   0  0  0  0  0  0  0  0  0  0  0  0
    0.5359    2.1656    0.0000 C   0  0  0  0  0  0  0  0  0  0  0  0
    1.2503    2.5781    0.0000 C   0  0  0  0  0  0  0  0  0  0  0  0
    1.2503    3.4031    0.0000 O   0  0  0  0  0  0  0  0  0  0  0  0
   -0.1786    0.1031    0.0000 C   0  0  0  0  0  0  0  0  0  0  0  0
   -0.1786   -0.7219    0.0000 C   0  0  0  0  0  0  0  0  0  0  0  0
  1  2  1  0  0  0  0
  2  3  2  0  0  0  0
  2  4  1  0  0  0  0
  4  5  1  0  0  0  0
  6  5  1  0  0  0  0
  7  6  2  0  0  0  0
  8  7  1  0  0  0  0
  8  9  1  0  0  0  0
  9 10  2  0  0  0  0
  9 11  2  0  0  0  0
  9 12  1  0  0  0  0
 12 13  1  0  0  0  0
 13 14  1  0  0  0  0
 15  8  2  0  0  0  0
 16 15  1  0  0  0  0
  5 16  2  0  0  0  0
M  END
> <RowID>
1251

> <Original_SMILES>
CC(=O)NC1C=CC(=CC=1)S(=O)(=O)CCO

> <Canonical_QSARr>
CC(=O)NC1C=CC(=CC=1)S(=O)(=O)CCO

> <InChI_Code_QSARr>
InChI=1S/C10H13NO4S/c1-8(13)11-9-2-4-10(5-3-9)16(14,15)7-6-12/h2-5,12H,6-7H2,1H3,(H,11,13)

> <InChI Key_QSARr>
XIICKRYAUAVEQS-UHFFFAOYSA-N

> <Salt_Solvent>


> <Salt_Solvent_ID>
0

> <Number of connected components>
1

$$$$
Molecule_1253
  Mrv2316 01072400032D          

 12 12  0  0  0  0            999 V2000
    1.8240    1.0265    0.0000 O   0  0  0  0  0  0  0  0  0  0  0  0
    1.0394    0.7716    0.0000 C   0  0  0  0  0  0  0  0  0  0  0  0
    0.3720    1.2565    0.0000 C   0  0  0  0  0  0  0  0  0  0  0  0
    0.3720    2.0815    0.0000 O   0  0  0  0  0  0  0  0  0  0  0  0
   -0.2955    0.7716    0.0000 O   0  0  0  0  0  0  0  0  0  0  0  0
   -0.0405   -0.0130    0.0000 C   0  0  0  0  0  0  0  0  0  0  0  0
   -0.5254   -0.6805    0.0000 C   0  0  0  0  0  0  0  0  0  0  0  0
   -1.3459   -0.5942    0.0000 C   0  0  0  0  0  0  0  0  0  0  0  0
   -1.8308   -1.2617    0.0000 O   0  0  0  0  0  0  0  0  0  0  0  0
   -0.1899   -1.4341    0.0000 O   0  0  0  0  0  0  0  0  0  0  0  0
    0.7845   -0.0130    0.0000 C   0  0  0  0  0  0  0  0  0  0  0  0
    1.2694   -0.6805    0.0000 O   0  0  0  0  0  0  0  0  0  0  0  0
  1  2  2  0  0  0  0
  3  2  1  0  0  0  0
  3  4  2  0  0  0  0
  5  3  1  0  0  0  0
  6  5  1  0  0  0  0
  6  7  1  0  0  0  0
  7  8  1  0  0  0  0
  8  9  1  0  0  0  0
  7 10  1  0  0  0  0
 11  6  1  0  0  0  0
  2 11  1  0  0  0  0
 11 12  1  0  0  0  0
M  END
> <RowID>
1253

> <Original_SMILES>
OC(CO)C1OC(=O)C(O)=C1O

> <Canonical_QSARr>
OCC(O)C1OC(=O)C(=O)C1O

> <InChI_Code_QSARr>
InChI=1S/C6H8O6/c7-1-2(8)5-3(9)4(10)6(11)12-5/h2-3,5,7-9H,1H2

> <InChI Key_QSARr>
KRGQEOSDQHTZMX-UHFFFAOYSA-N

> <Salt_Solvent>


> <Salt_Solvent_ID>
0

> <Number of connected components>
1

$$$$
Molecule_1254
  Mrv2316 01072400032D          

 12 12  0  0  0  0            999 V2000
    2.1434   -1.2375    0.0000 C   0  0  0  0  0  0  0  0  0  0  0  0
    2.1434   -0.4125    0.0000 O   0  0  0  0  0  0  0  0  0  0  0  0
    1.4289   -0.0000    0.0000 C   0  0  0  0  0  0  0  0  0  0  0  0
    1.4289    0.8250    0.0000 C   0  0  0  0  0  0  0  0  0  0  0  0
    0.7145    1.2375    0.0000 C   0  0  0  0  0  0  0  0  0  0  0  0
    0.7145    2.0625    0.0000 N   0  3  0  0  0  0  0  0  0  0  0  0
   -0.0000    2.4750    0.0000 O   0  5  0  0  0  0  0  0  0  0  0  0
    1.4289    2.4750    0.0000 O   0  0  0  0  0  0  0  0  0  0  0  0
   -0.0000    0.8250    0.0000 C   0  0  0  0  0  0  0  0  0  0  0  0
   -0.0000    0.0000    0.0000 C   0  0  0  0  0  0  0  0  0  0  0  0
    0.7145   -0.4125    0.0000 C   0  0  0  0  0  0  0  0  0  0  0  0
    0.7145   -1.2375    0.0000 N   0  0  0  0  0  0  0  0  0  0  0  0
  1  2  1  0  0  0  0
  2  3  1  0  0  0  0
  4  3  2  0  0  0  0
  5  4  1  0  0  0  0
  5  6  1  0  0  0  0
  6  7  1  0  0  0  0
  6  8  2  0  0  0  0
  9  5  2  0  0  0  0
 10  9  1  0  0  0  0
 11 10  2  0  0  0  0
  3 11  1  0  0  0  0
 11 12  1  0  0  0  0
M  CHG  2   6   1   7  -1
M  END
> <RowID>
1254

> <Original_SMILES>
COC1=CC(=CC=C1N)[N+]([O-])=O

> <Canonical_QSARr>
COC1=CC(=CC=C1N)[N+]([O-])=O

> <InChI_Code_QSARr>
InChI=1S/C7H8N2O3/c1-12-7-4-5(9(10)11)2-3-6(7)8/h2-4H,8H2,1H3

> <InChI Key_QSARr>
GVBHRNIWBGTNQA-UHFFFAOYSA-N

> <Salt_Solvent>


> <Salt_Solvent_ID>
0

> <Number of connected components>
1

$$$$
Molecule_1255
  Mrv2316 01072400032D          

 10 10  0  0  0  0            999 V2000
    0.7145   -2.0625    0.0000 N   0  0  0  0  0  0  0  0  0  0  0  0
    0.7145   -1.2375    0.0000 C   0  0  0  0  0  0  0  0  0  0  0  0
    1.4289   -0.8250    0.0000 C   0  0  0  0  0  0  0  0  0  0  0  0
    1.4289   -0.0000    0.0000 C   0  0  0  0  0  0  0  0  0  0  0  0
    0.7145    0.4125    0.0000 C   0  0  0  0  0  0  0  0  0  0  0  0
    0.7145    1.2375    0.0000 C   0  0  0  0  0  0  0  0  0  0  0  0
   -0.0000    1.6500    0.0000 O   0  0  0  0  0  0  0  0  0  0  0  0
    1.4289    1.6500    0.0000 O   0  0  0  0  0  0  0  0  0  0  0  0
   -0.0000   -0.0000    0.0000 C   0  0  0  0  0  0  0  0  0  0  0  0
   -0.0000   -0.8250    0.0000 C   0  0  0  0  0  0  0  0  0  0  0  0
  1  2  1  0  0  0  0
  3  2  2  0  0  0  0
  4  3  1  0  0  0  0
  5  4  2  0  0  0  0
  5  6  1  0  0  0  0
  6  7  1  0  0  0  0
  6  8  2  0  0  0  0
  9  5  1  0  0  0  0
 10  9  2  0  0  0  0
  2 10  1  0  0  0  0
M  END
> <RowID>
1255

> <Original_SMILES>
NC1=CC=C(C=C1)C(O)=O

> <Canonical_QSARr>
NC1=CC=C(C=C1)C(O)=O

> <InChI_Code_QSARr>
InChI=1S/C7H7NO2/c8-6-3-1-5(2-4-6)7(9)10/h1-4H,8H2,(H,9,10)

> <InChI Key_QSARr>
ALYNCZNDIQEVRV-UHFFFAOYSA-N

> <Salt_Solvent>


> <Salt_Solvent_ID>
0

> <Number of connected components>
1

$$$$
Molecule_1256
  Mrv2316 01072400032D          

 11 10  0  0  0  0            999 V2000
    0.8250    4.2868    0.0000 C   0  0  0  0  0  0  0  0  0  0  0  0
    0.4125    3.5724    0.0000 O   0  0  0  0  0  0  0  0  0  0  0  0
    0.8250    2.8579    0.0000 C   0  0  0  0  0  0  0  0  0  0  0  0
    0.1105    2.4454    0.0000 C   0  0  0  0  0  0  0  0  0  0  0  0
    1.5395    3.2704    0.0000 C   0  0  0  0  0  0  0  0  0  0  0  0
    1.2375    2.1434    0.0000 C   0  0  0  0  0  0  0  0  0  0  0  0
    0.8250    1.4289    0.0000 C   0  0  0  0  0  0  0  0  0  0  0  0
    1.2375    0.7145    0.0000 O   0  0  0  0  0  0  0  0  0  0  0  0
    0.8250    0.0000    0.0000 C   0  0  0  0  0  0  0  0  0  0  0  0
    1.2375   -0.7145    0.0000 C   0  0  0  0  0  0  0  0  0  0  0  0
    0.0000    0.0000    0.0000 O   0  0  0  0  0  0  0  0  0  0  0  0
  1  2  1  0  0  0  0
  2  3  1  0  0  0  0
  3  4  1  0  0  0  0
  3  5  1  0  0  0  0
  3  6  1  0  0  0  0
  6  7  1  0  0  0  0
  7  8  1  0  0  0  0
  8  9  1  0  0  0  0
  9 10  1  0  0  0  0
  9 11  2  0  0  0  0
M  END
> <RowID>
1256

> <Original_SMILES>
COC(C)(C)CCOC(C)=O

> <Canonical_QSARr>
COC(C)(C)CCOC(C)=O

> <InChI_Code_QSARr>
InChI=1S/C8H16O3/c1-7(9)11-6-5-8(2,3)10-4/h5-6H2,1-4H3

> <InChI Key_QSARr>
RYNQKSJRFHJZTK-UHFFFAOYSA-N

> <Salt_Solvent>


> <Salt_Solvent_ID>
0

> <Number of connected components>
1

$$$$
Molecule_1257
  Mrv2316 01072400032D          

 10  9  0  0  0  0            999 V2000
   -0.1914    0.7145    0.0000 O   0  0  0  0  0  0  0  0  0  0  0  0
    0.5230    1.1270    0.0000 C   0  0  0  0  0  0  0  0  0  0  0  0
    0.5230    1.9520    0.0000 O   0  0  0  0  0  0  0  0  0  0  0  0
    1.2375    0.7145    0.0000 C   0  0  0  0  0  0  0  0  0  0  0  0
    1.2375   -0.1105    0.0000 O   0  0  0  0  0  0  0  0  0  0  0  0
    1.9520    1.1270    0.0000 C   0  0  0  0  0  0  0  0  0  0  0  0
    1.9520    1.9520    0.0000 O   0  0  0  0  0  0  0  0  0  0  0  0
    2.6664    0.7145    0.0000 C   0  0  0  0  0  0  0  0  0  0  0  0
    3.3809    1.1270    0.0000 O   0  0  0  0  0  0  0  0  0  0  0  0
    2.6664   -0.1105    0.0000 O   0  0  0  0  0  0  0  0  0  0  0  0
  1  2  1  0  0  0  0
  2  3  2  0  0  0  0
  2  4  1  0  0  0  0
  4  5  1  0  0  0  0
  4  6  1  0  0  0  0
  6  7  1  0  0  0  0
  6  8  1  0  0  0  0
  8  9  1  0  0  0  0
  8 10  2  0  0  0  0
M  END
> <RowID>
1257

> <Original_SMILES>
OC(=O)C(O)C(O)C(O)=O

> <Canonical_QSARr>
OC(=O)C(O)C(O)C(O)=O

> <InChI_Code_QSARr>
InChI=1S/C4H6O6/c5-1(3(7)8)2(6)4(9)10/h1-2,5-6H,(H,7,8)(H,9,10)

> <InChI Key_QSARr>
FEWJPZIEWOKRBE-UHFFFAOYSA-N

> <Salt_Solvent>


> <Salt_Solvent_ID>
0

> <Number of connected components>
1

$$$$
Molecule_1258
  Mrv2316 01072400032D          

 10  9  0  0  0  0            999 V2000
   -0.1914    0.7145    0.0000 O   0  0  0  0  0  0  0  0  0  0  0  0
    0.5230    1.1270    0.0000 C   0  0  0  0  0  0  0  0  0  0  0  0
    0.5230    1.9520    0.0000 O   0  0  0  0  0  0  0  0  0  0  0  0
    1.2375    0.7145    0.0000 C   0  0  0  0  0  0  0  0  0  0  0  0
    1.2375   -0.1105    0.0000 O   0  0  0  0  0  0  0  0  0  0  0  0
    1.9520    1.1270    0.0000 C   0  0  0  0  0  0  0  0  0  0  0  0
    1.9520    1.9520    0.0000 O   0  0  0  0  0  0  0  0  0  0  0  0
    2.6664    0.7145    0.0000 C   0  0  0  0  0  0  0  0  0  0  0  0
    3.3809    1.1270    0.0000 O   0  0  0  0  0  0  0  0  0  0  0  0
    2.6664   -0.1105    0.0000 O   0  0  0  0  0  0  0  0  0  0  0  0
  1  2  1  0  0  0  0
  2  3  2  0  0  0  0
  2  4  1  0  0  0  0
  4  5  1  0  0  0  0
  4  6  1  0  0  0  0
  6  7  1  0  0  0  0
  6  8  1  0  0  0  0
  8  9  1  0  0  0  0
  8 10  2  0  0  0  0
M  END
> <RowID>
1258

> <Original_SMILES>
OC(=O)C(O)C(O)C(O)=O

> <Canonical_QSARr>
OC(=O)C(O)C(O)C(O)=O

> <InChI_Code_QSARr>
InChI=1S/C4H6O6/c5-1(3(7)8)2(6)4(9)10/h1-2,5-6H,(H,7,8)(H,9,10)

> <InChI Key_QSARr>
FEWJPZIEWOKRBE-UHFFFAOYSA-N

> <Salt_Solvent>


> <Salt_Solvent_ID>
0

> <Number of connected components>
1

$$$$
Molecule_1259
  Mrv2316 01072400032D          

 28 29  0  0  0  0            999 V2000
   -3.4737   -7.4770    0.0000 C   0  0  0  0  0  0  0  0  0  0  0  0
   -2.7592   -7.0645    0.0000 C   0  0  0  0  0  0  0  0  0  0  0  0
   -2.7592   -6.2395    0.0000 C   0  0  0  0  0  0  0  0  0  0  0  0
   -2.0448   -5.8270    0.0000 C   0  0  0  0  0  0  0  0  0  0  0  0
   -2.0448   -5.0020    0.0000 C   0  0  0  0  0  0  0  0  0  0  0  0
   -1.3303   -4.5895    0.0000 C   0  0  0  0  0  0  0  0  0  0  0  0
   -1.3303   -3.7645    0.0000 C   0  0  0  0  0  0  0  0  0  0  0  0
   -0.6158   -3.3520    0.0000 C   0  0  0  0  0  0  0  0  0  0  0  0
    0.0987   -3.7645    0.0000 O   0  0  0  0  0  0  0  0  0  0  0  0
   -0.6158   -2.5270    0.0000 O   0  0  0  0  0  0  0  0  0  0  0  0
    0.0987   -2.1145    0.0000 C   0  0  0  0  0  0  0  0  0  0  0  0
    0.8523   -2.4500    0.0000 C   0  0  0  0  0  0  0  0  0  0  0  0
    1.4044   -1.8370    0.0000 O   0  0  0  0  0  0  0  0  0  0  0  0
    0.9919   -1.1225    0.0000 C   0  0  0  0  0  0  0  0  0  0  0  0
    0.1849   -1.2940    0.0000 C   0  0  0  0  0  0  0  0  0  0  0  0
   -0.2276   -0.5795    0.0000 O   0  0  0  0  0  0  0  0  0  0  0  0
    0.3244    0.0336    0.0000 C   0  0  0  0  0  0  0  0  0  0  0  0
    1.0781   -0.3020    0.0000 C   0  0  0  0  0  0  0  0  0  0  0  0
    1.7926    0.1105    0.0000 O   0  0  0  0  0  0  0  0  0  0  0  0
    2.5070   -0.3020    0.0000 C   0  0  0  0  0  0  0  0  0  0  0  0
    2.5070   -1.1270    0.0000 O   0  0  0  0  0  0  0  0  0  0  0  0
    3.2215    0.1105    0.0000 C   0  0  0  0  0  0  0  0  0  0  0  0
    3.9360   -0.3020    0.0000 C   0  0  0  0  0  0  0  0  0  0  0  0
    4.6504    0.1105    0.0000 C   0  0  0  0  0  0  0  0  0  0  0  0
    5.3649   -0.3020    0.0000 C   0  0  0  0  0  0  0  0  0  0  0  0
    6.0794    0.1105    0.0000 C   0  0  0  0  0  0  0  0  0  0  0  0
    6.7939   -0.3020    0.0000 C   0  0  0  0  0  0  0  0  0  0  0  0
    7.5083    0.1105    0.0000 C   0  0  0  0  0  0  0  0  0  0  0  0
  1  2  1  0  0  0  0
  2  3  1  0  0  0  0
  3  4  1  0  0  0  0
  4  5  1  0  0  0  0
  5  6  1  0  0  0  0
  6  7  1  0  0  0  0
  7  8  1  0  0  0  0
  8  9  2  0  0  0  0
  8 10  1  0  0  0  0
 10 11  1  0  0  0  0
 12 11  1  0  0  0  0
 13 12  1  0  0  0  0
 14 13  1  0  0  0  0
 14 15  1  0  0  0  0
 11 15  1  0  0  0  0
 15 16  1  0  0  0  0
 16 17  1  0  0  0  0
 17 18  1  0  0  0  0
 18 14  1  0  0  0  0
 18 19  1  0  0  0  0
 19 20  1  0  0  0  0
 20 21  2  0  0  0  0
 20 22  1  0  0  0  0
 22 23  1  0  0  0  0
 23 24  1  0  0  0  0
 24 25  1  0  0  0  0
 25 26  1  0  0  0  0
 26 27  1  0  0  0  0
 27 28  1  0  0  0  0
M  END
> <RowID>
1259

> <Original_SMILES>
CCCCCCCC(=O)OC1COC2C1OCC2OC(=O)CCCCCCC

> <Canonical_QSARr>
CCCCCCCC(=O)OC1COC2C1OCC2OC(=O)CCCCCCC

> <InChI_Code_QSARr>
InChI=1S/C22H38O6/c1-3-5-7-9-11-13-19(23)27-17-15-25-22-18(16-26-21(17)22)28-20(24)14-12-10-8-6-4-2/h17-18,21-22H,3-16H2,1-2H3

> <InChI Key_QSARr>
BIOGOMUNGWOQHV-UHFFFAOYSA-N

> <Salt_Solvent>


> <Salt_Solvent_ID>
0

> <Number of connected components>
1

$$$$
Molecule_1260
  Mrv2316 01072400032D          

  6  5  0  0  0  0            999 V2000
    2.0625    0.7145    0.0000 C   0  0  0  0  0  0  0  0  0  0  0  0
    1.2375    0.7145    0.0000 C   0  0  0  0  0  0  0  0  0  0  0  0
    0.8250    0.0000    0.0000 C   0  0  0  0  0  0  0  0  0  0  0  0
    0.0000    0.0000    0.0000 C   0  0  0  0  0  0  0  0  0  0  0  0
   -0.4125   -0.7145    0.0000 C   0  0  0  0  0  0  0  0  0  0  0  0
   -0.8250   -1.4289    0.0000 N   0  0  0  0  0  0  0  0  0  0  0  0
  1  2  1  0  0  0  0
  3  2  1  4  0  0  0
  3  4  2  0  0  0  0
  4  5  1  0  0  0  0
  5  6  3  0  0  0  0
M  END
> <RowID>
1260

> <Original_SMILES>
CCC=CC#N

> <Canonical_QSARr>
CCC=CC#N

> <InChI_Code_QSARr>
InChI=1S/C5H7N/c1-2-3-4-5-6/h3-4H,2H2,1H3

> <InChI Key_QSARr>
ISBHMJZRKAFTGE-UHFFFAOYSA-N

> <Salt_Solvent>


> <Salt_Solvent_ID>
0

> <Number of connected components>
1

$$$$
Molecule_1261
  Mrv2316 01072400032D          

 19 18  0  0  0  0            999 V2000
   -4.1467    2.5559    0.0000 C   0  0  0  0  0  0  0  0  0  0  0  0
   -3.4322    2.1434    0.0000 C   0  0  0  0  0  0  0  0  0  0  0  0
   -2.7177    2.5559    0.0000 C   0  0  0  0  0  0  0  0  0  0  0  0
   -2.0033    2.1434    0.0000 C   0  0  0  0  0  0  0  0  0  0  0  0
   -1.2888    2.5559    0.0000 C   0  0  0  0  0  0  0  0  0  0  0  0
   -0.5743    2.1434    0.0000 C   0  0  0  0  0  0  0  0  0  0  0  0
    0.1402    2.5559    0.0000 C   0  0  0  0  0  0  0  0  0  0  0  0
    0.8546    2.1434    0.0000 C   0  0  0  0  0  0  0  0  0  0  0  0
    1.5691    2.5559    0.0000 C   0  0  0  0  0  0  0  0  0  0  0  0
    2.2836    2.1434    0.0000 C   0  0  0  0  0  0  0  0  0  0  0  0
    2.9980    2.5559    0.0000 C   0  0  0  0  0  0  0  0  0  0  0  0
    3.7125    2.1434    0.0000 C   0  0  0  0  0  0  0  0  0  0  0  0
    4.4270    2.5559    0.0000 C   0  0  0  0  0  0  0  0  0  0  0  0
    5.1414    2.1434    0.0000 C   0  0  0  0  0  0  0  0  0  0  0  0
    5.8559    2.5559    0.0000 C   0  0  0  0  0  0  0  0  0  0  0  0
    6.5704    2.1434    0.0000 C   0  0  0  0  0  0  0  0  0  0  0  0
    7.2849    2.5559    0.0000 C   0  0  0  0  0  0  0  0  0  0  0  0
    7.9993    2.1434    0.0000 C   0  0  0  0  0  0  0  0  0  0  0  0
    8.7138    2.5559    0.0000 O   0  0  0  0  0  0  0  0  0  0  0  0
  1  2  1  0  0  0  0
  2  3  1  0  0  0  0
  3  4  1  0  0  0  0
  4  5  1  0  0  0  0
  5  6  1  0  0  0  0
  6  7  1  0  0  0  0
  7  8  1  0  0  0  0
  9  8  1  4  0  0  0
  9 10  2  0  0  0  0
 10 11  1  0  0  0  0
 11 12  1  0  0  0  0
 12 13  1  0  0  0  0
 13 14  1  0  0  0  0
 14 15  1  0  0  0  0
 15 16  1  0  0  0  0
 16 17  1  0  0  0  0
 17 18  1  0  0  0  0
 18 19  1  0  0  0  0
M  END
> <RowID>
1261

> <Original_SMILES>
CCCCCCCCC=CCCCCCCCCO

> <Canonical_QSARr>
CCCCCCCCC=CCCCCCCCCO

> <InChI_Code_QSARr>
InChI=1S/C18H36O/c1-2-3-4-5-6-7-8-9-10-11-12-13-14-15-16-17-18-19/h9-10,19H,2-8,11-18H2,1H3

> <InChI Key_QSARr>
ALSTYHKOOCGGFT-UHFFFAOYSA-N

> <Salt_Solvent>


> <Salt_Solvent_ID>
0

> <Number of connected components>
1

$$$$
Molecule_1262
  Mrv2316 01072400032D          

 21 23  0  0  0  0            999 V2000
    2.1616   -3.1606    0.0000 N   0  0  0  0  0  0  0  0  0  0  0  0
    1.4941   -2.6757    0.0000 N   0  0  0  0  0  0  0  0  0  0  0  0
    1.4941   -1.8507    0.0000 C   0  0  0  0  0  0  0  0  0  0  0  0
    2.2086   -1.4382    0.0000 C   0  0  0  0  0  0  0  0  0  0  0  0
    2.2086   -0.6132    0.0000 C   0  0  0  0  0  0  0  0  0  0  0  0
    1.4941   -0.2007    0.0000 C   0  0  0  0  0  0  0  0  0  0  0  0
    0.7797   -0.6132    0.0000 C   0  0  0  0  0  0  0  0  0  0  0  0
    0.7797   -1.4382    0.0000 C   0  0  0  0  0  0  0  0  0  0  0  0
    0.8267   -3.1606    0.0000 C   0  0  0  0  0  0  0  0  0  0  0  0
    0.0421   -2.9057    0.0000 O   0  0  0  0  0  0  0  0  0  0  0  0
    1.0816   -3.9453    0.0000 C   0  0  0  0  0  0  0  0  0  0  0  0
    0.5967   -4.6127    0.0000 N   0  0  0  0  0  0  0  0  0  0  0  0
   -0.2238   -4.5265    0.0000 N   0  0  0  0  0  0  0  0  0  0  0  0
   -0.7087   -5.1939    0.0000 C   0  0  0  0  0  0  0  0  0  0  0  0
   -1.5292   -5.1077    0.0000 C   0  0  0  0  0  0  0  0  0  0  0  0
   -2.0141   -5.7751    0.0000 C   0  0  0  0  0  0  0  0  0  0  0  0
   -1.6785   -6.5288    0.0000 C   0  0  0  0  0  0  0  0  0  0  0  0
   -0.8580   -6.6150    0.0000 C   0  0  0  0  0  0  0  0  0  0  0  0
   -0.3731   -5.9476    0.0000 C   0  0  0  0  0  0  0  0  0  0  0  0
    1.9066   -3.9453    0.0000 C   0  0  0  0  0  0  0  0  0  0  0  0
    2.3916   -4.6127    0.0000 C   0  0  0  0  0  0  0  0  0  0  0  0
  2  1  1  0  0  0  0
  2  3  1  0  0  0  0
  4  3  1  0  0  0  0
  5  4  2  0  0  0  0
  6  5  1  0  0  0  0
  7  6  2  0  0  0  0
  8  7  1  0  0  0  0
  3  8  2  0  0  0  0
  9  2  1  0  0  0  0
  9 10  2  0  0  0  0
 11  9  1  0  0  0  0
 12 11  1  4  0  0  0
 12 13  2  0  0  0  0
 13 14  1  0  0  0  0
 15 14  1  0  0  0  0
 16 15  2  0  0  0  0
 17 16  1  0  0  0  0
 18 17  2  0  0  0  0
 19 18  1  0  0  0  0
 14 19  2  0  0  0  0
 20 11  1  0  0  0  0
  1 20  2  0  0  0  0
 20 21  1  0  0  0  0
M  END
> <RowID>
1262

> <Original_SMILES>
CC1NN(C(=O)C=1N=NC1C=CC=CC=1)C1C=CC=CC=1

> <Canonical_QSARr>
CC1=NN(C(=O)C1N=NC1C=CC=CC=1)C1C=CC=CC=1

> <InChI_Code_QSARr>
InChI=1S/C16H14N4O/c1-12-15(18-17-13-8-4-2-5-9-13)16(21)20(19-12)14-10-6-3-7-11-14/h2-11,15H,1H3

> <InChI Key_QSARr>
XCKGFJPFEHHHQA-UHFFFAOYSA-N

> <Salt_Solvent>


> <Salt_Solvent_ID>
0

> <Number of connected components>
1

$$$$
Molecule_1263
  Mrv2316 01072400032D          

 20 21  0  0  0  0            999 V2000
    1.4289   -2.4750    0.0000 N   0  0  0  0  0  0  0  0  0  0  0  0
    1.4289   -1.6500    0.0000 C   0  0  0  0  0  0  0  0  0  0  0  0
    0.7145   -1.2375    0.0000 C   0  0  0  0  0  0  0  0  0  0  0  0
    0.7145   -0.4125    0.0000 C   0  0  0  0  0  0  0  0  0  0  0  0
    1.4289   -0.0000    0.0000 C   0  0  0  0  0  0  0  0  0  0  0  0
    1.4289    0.8250    0.0000 S   0  0  0  0  0  0  0  0  0  0  0  0
    1.4289    1.6500    0.0000 O   0  0  0  0  0  0  0  0  0  0  0  0
    2.2539    0.8250    0.0000 O   0  0  0  0  0  0  0  0  0  0  0  0
    0.6039    0.8250    0.0000 O   0  0  0  0  0  0  0  0  0  0  0  0
    2.1434   -0.4125    0.0000 C   0  0  0  0  0  0  0  0  0  0  0  0
    2.8579    0.0000    0.0000 C   0  0  0  0  0  0  0  0  0  0  0  0
    3.5723   -0.4125    0.0000 C   0  0  0  0  0  0  0  0  0  0  0  0
    3.5723   -1.2375    0.0000 C   0  0  0  0  0  0  0  0  0  0  0  0
    2.8579   -1.6500    0.0000 C   0  0  0  0  0  0  0  0  0  0  0  0
    2.8579   -2.4750    0.0000 O   0  0  0  0  0  0  0  0  0  0  0  0
    2.1434   -1.2375    0.0000 C   0  0  0  0  0  0  0  0  0  0  0  0
    4.2868   -0.0000    0.0000 S   0  0  0  0  0  0  0  0  0  0  0  0
    5.0013    0.4125    0.0000 O   0  0  0  0  0  0  0  0  0  0  0  0
    4.6993   -0.7145    0.0000 O   0  0  0  0  0  0  0  0  0  0  0  0
    3.8743    0.7145    0.0000 O   0  0  0  0  0  0  0  0  0  0  0  0
  1  2  1  0  0  0  0
  3  2  1  0  0  0  0
  4  3  2  0  0  0  0
  5  4  1  0  0  0  0
  5  6  1  0  0  0  0
  6  7  1  0  0  0  0
  6  8  2  0  0  0  0
  6  9  2  0  0  0  0
 10  5  2  0  0  0  0
 10 11  1  0  0  0  0
 11 12  2  0  0  0  0
 12 13  1  0  0  0  0
 13 14  2  0  0  0  0
 14 15  1  0  0  0  0
 14 16  1  0  0  0  0
  2 16  2  0  0  0  0
 16 10  1  0  0  0  0
 12 17  1  0  0  0  0
 17 18  1  0  0  0  0
 17 19  2  0  0  0  0
 17 20  2  0  0  0  0
M  END
> <RowID>
1263

> <Original_SMILES>
NC1C=CC(=C2C=C(C=C(O)C2=1)S(O)(=O)=O)S(O)(=O)=O

> <Canonical_QSARr>
NC1C=CC(=C2C=C(C=C(O)C2=1)S(O)(=O)=O)S(O)(=O)=O

> <InChI_Code_QSARr>
InChI=1S/C10H9NO7S2/c11-7-1-2-9(20(16,17)18)6-3-5(19(13,14)15)4-8(12)10(6)7/h1-4,12H,11H2,(H,13,14,15)(H,16,17,18)

> <InChI Key_QSARr>
ZUQOBHTUMCEQBG-UHFFFAOYSA-N

> <Salt_Solvent>


> <Salt_Solvent_ID>
0

> <Number of connected components>
1

$$$$
Molecule_1264
  Mrv2316 01072400032D          

 49 51  0  0  0  0            999 V2000
   -2.0963   -2.8844    0.0000 C   0  0  0  0  0  0  0  0  0  0  0  0
   -1.6838   -2.1699    0.0000 C   0  0  0  0  0  0  0  0  0  0  0  0
   -0.8588   -2.1699    0.0000 C   0  0  0  0  0  0  0  0  0  0  0  0
   -0.4463   -1.4554    0.0000 C   0  0  0  0  0  0  0  0  0  0  0  0
    0.3787   -1.4554    0.0000 C   0  0  0  0  0  0  0  0  0  0  0  0
    0.3787   -0.6304    0.0000 C   0  0  0  0  0  0  0  0  0  0  0  0
   -0.3358   -0.2179    0.0000 C   0  0  0  0  0  0  0  0  0  0  0  0
   -0.3358    0.6071    0.0000 C   0  0  0  0  0  0  0  0  0  0  0  0
   -1.0503    1.0196    0.0000 C   0  0  0  0  0  0  0  0  0  0  0  0
   -1.0503    1.8446    0.0000 C   0  0  0  0  0  0  0  0  0  0  0  0
   -1.0503    2.6696    0.0000 C   0  0  0  0  0  0  0  0  0  0  0  0
   -1.8753    1.8446    0.0000 C   0  0  0  0  0  0  0  0  0  0  0  0
   -0.2253    1.8446    0.0000 C   0  0  0  0  0  0  0  0  0  0  0  0
   -1.7647    0.6071    0.0000 C   0  0  0  0  0  0  0  0  0  0  0  0
   -2.4792    1.0196    0.0000 O   0  0  0  0  0  0  0  0  0  0  0  0
   -1.7647   -0.2179    0.0000 C   0  0  0  0  0  0  0  0  0  0  0  0
   -2.4792   -0.6304    0.0000 C   0  0  0  0  0  0  0  0  0  0  0  0
   -3.1937   -1.0429    0.0000 C   0  0  0  0  0  0  0  0  0  0  0  0
   -2.0667   -1.3449    0.0000 C   0  0  0  0  0  0  0  0  0  0  0  0
   -2.8917    0.0840    0.0000 C   0  0  0  0  0  0  0  0  0  0  0  0
   -1.0503   -0.6304    0.0000 C   0  0  0  0  0  0  0  0  0  0  0  0
    0.3787   -2.2804    0.0000 C   0  0  0  0  0  0  0  0  0  0  0  0
   -0.3358   -2.6929    0.0000 O   0  0  0  0  0  0  0  0  0  0  0  0
    1.0932   -2.6929    0.0000 O   0  0  0  0  0  0  0  0  0  0  0  0
    1.0932   -3.5179    0.0000 C   0  0  0  0  0  0  0  0  0  0  0  0
    0.3787   -3.9304    0.0000 C   0  0  0  0  0  0  0  0  0  0  0  0
    0.3787   -4.7554    0.0000 C   0  0  0  0  0  0  0  0  0  0  0  0
   -0.4338   -4.6122    0.0000 C   0  0  0  0  0  0  0  0  0  0  0  0
    0.0965   -5.5307    0.0000 C   0  0  0  0  0  0  0  0  0  0  0  0
    1.0932   -5.1679    0.0000 N   0  0  0  0  0  0  0  0  0  0  0  0
    1.0932   -5.9929    0.0000 C   0  0  0  0  0  0  0  0  0  0  0  0
    1.8076   -4.7554    0.0000 C   0  0  0  0  0  0  0  0  0  0  0  0
    2.0898   -5.5307    0.0000 C   0  0  0  0  0  0  0  0  0  0  0  0
    2.6201   -4.6122    0.0000 C   0  0  0  0  0  0  0  0  0  0  0  0
    1.8076   -3.9304    0.0000 C   0  0  0  0  0  0  0  0  0  0  0  0
    1.2037   -1.4554    0.0000 C   0  0  0  0  0  0  0  0  0  0  0  0
    1.6162   -0.7410    0.0000 O   0  0  0  0  0  0  0  0  0  0  0  0
    1.6162   -2.1699    0.0000 O   0  0  0  0  0  0  0  0  0  0  0  0
    2.4412   -2.1699    0.0000 C   0  0  0  0  0  0  0  0  0  0  0  0
    2.8537   -2.8844    0.0000 C   0  0  0  0  0  0  0  0  0  0  0  0
    3.6787   -2.8844    0.0000 C   0  0  0  0  0  0  0  0  0  0  0  0
    3.5354   -3.6968    0.0000 C   0  0  0  0  0  0  0  0  0  0  0  0
    4.4539   -3.1665    0.0000 C   0  0  0  0  0  0  0  0  0  0  0  0
    4.0912   -2.1699    0.0000 N   0  0  0  0  0  0  0  0  0  0  0  0
    4.9162   -2.1699    0.0000 C   0  0  0  0  0  0  0  0  0  0  0  0
    3.6787   -1.4554    0.0000 C   0  0  0  0  0  0  0  0  0  0  0  0
    4.4539   -1.1733    0.0000 C   0  0  0  0  0  0  0  0  0  0  0  0
    3.5354   -0.6430    0.0000 C   0  0  0  0  0  0  0  0  0  0  0  0
    2.8537   -1.4554    0.0000 C   0  0  0  0  0  0  0  0  0  0  0  0
  1  2  1  0  0  0  0
  2  3  1  0  0  0  0
  3  4  1  0  0  0  0
  4  5  1  0  0  0  0
  5  6  1  0  0  0  0
  6  7  1  0  0  0  0
  8  7  1  0  0  0  0
  9  8  2  0  0  0  0
  9 10  1  0  0  0  0
 10 11  1  0  0  0  0
 10 12  1  0  0  0  0
 10 13  1  0  0  0  0
 14  9  1  0  0  0  0
 14 15  1  0  0  0  0
 16 14  2  0  0  0  0
 16 17  1  0  0  0  0
 17 18  1  0  0  0  0
 17 19  1  0  0  0  0
 17 20  1  0  0  0  0
 21 16  1  0  0  0  0
  7 21  2  0  0  0  0
  5 22  1  0  0  0  0
 22 23  2  0  0  0  0
 22 24  1  0  0  0  0
 24 25  1  0  0  0  0
 26 25  1  0  0  0  0
 27 26  1  0  0  0  0
 27 28  1  0  0  0  0
 27 29  1  0  0  0  0
 30 27  1  0  0  0  0
 30 31  1  0  0  0  0
 32 30  1  0  0  0  0
 32 33  1  0  0  0  0
 32 34  1  0  0  0  0
 35 32  1  0  0  0  0
 25 35  1  0  0  0  0
  5 36  1  0  0  0  0
 36 37  2  0  0  0  0
 36 38  1  0  0  0  0
 38 39  1  0  0  0  0
 40 39  1  0  0  0  0
 41 40  1  0  0  0  0
 41 42  1  0  0  0  0
 41 43  1  0  0  0  0
 44 41  1  0  0  0  0
 44 45  1  0  0  0  0
 46 44  1  0  0  0  0
 46 47  1  0  0  0  0
 46 48  1  0  0  0  0
 49 46  1  0  0  0  0
 39 49  1  0  0  0  0
M  END
> <RowID>
1264

> <Original_SMILES>
CCCCC(CC1C=C(C(O)=C(C=1)C(C)(C)C)C(C)(C)C)(C(=O)OC1CC(C)(C)N(C)C(C)(C)C1)C(=O)OC1CC(C)(C)N(C)C(C)(C)C1

> <Canonical_QSARr>
CCCCC(CC1C=C(C(O)=C(C=1)C(C)(C)C)C(C)(C)C)(C(=O)OC1CC(C)(C)N(C)C(C)(C)C1)C(=O)OC1CC(C)(C)N(C)C(C)(C)C1

> <InChI_Code_QSARr>
InChI=1S/C42H72N2O5/c1-18-19-20-42(34(46)48-29-24-38(8,9)43(16)39(10,11)25-29,35(47)49-30-26-40(12,13)44(17)41(14,15)27-30)23-28-21-31(36(2,3)4)33(45)32(22-28)37(5,6)7/h21-22,29-30,45H,18-20,23-27H2,1-17H3

> <InChI Key_QSARr>
FLPKSBDJMLUTEX-UHFFFAOYSA-N

> <Salt_Solvent>


> <Salt_Solvent_ID>
0

> <Number of connected components>
1

$$$$
Molecule_1265
  Mrv2316 01072400032D          

 10  9  0  0  0  0            999 V2000
    1.6500    0.0000    0.0000 C   0  0  0  0  0  0  0  0  0  0  0  0
    0.8250    0.0000    0.0000 N   0  3  0  0  0  0  0  0  0  0  0  0
    0.8250    0.8250    0.0000 C   0  0  0  0  0  0  0  0  0  0  0  0
    1.5395    1.2375    0.0000 C   0  0  0  0  0  0  0  0  0  0  0  0
    1.5395    2.0625    0.0000 C   0  0  0  0  0  0  0  0  0  0  0  0
    2.2539    2.4750    0.0000 O   0  0  0  0  0  0  0  0  0  0  0  0
    0.8250   -0.8250    0.0000 C   0  0  0  0  0  0  0  0  0  0  0  0
    0.1105   -1.2375    0.0000 C   0  0  0  0  0  0  0  0  0  0  0  0
    0.1105   -2.0625    0.0000 O   0  0  0  0  0  0  0  0  0  0  0  0
   -0.0000    0.0000    0.0000 C   0  0  0  0  0  0  0  0  0  0  0  0
  1  2  1  0  0  0  0
  2  3  1  0  0  0  0
  3  4  1  0  0  0  0
  4  5  1  0  0  0  0
  5  6  1  0  0  0  0
  2  7  1  0  0  0  0
  7  8  1  0  0  0  0
  8  9  1  0  0  0  0
  2 10  1  0  0  0  0
M  CHG  1   2   1
M  END
> <RowID>
1265

> <Original_SMILES>
[Cl-].C[N+](C)(CCO)CCCO

> <Canonical_QSARr>
C[N+](C)(CCO)CCCO

> <InChI_Code_QSARr>
InChI=1S/C7H18NO2/c1-8(2,5-7-10)4-3-6-9/h9-10H,3-7H2,1-2H3/q+1

> <InChI Key_QSARr>
HZSWYNMKGGUNNS-UHFFFAOYSA-N

> <Salt_Solvent>
[Cl-]

> <Salt_Solvent_ID>
170

> <Number of connected components>
2

$$$$
Molecule_1266
  Mrv2316 01072400032D          

 15 14  0  0  0  0            999 V2000
    0.8546    2.1434    0.0000 C   0  0  0  0  0  0  0  0  0  0  0  0
    1.5691    2.5559    0.0000 C   0  0  0  0  0  0  0  0  0  0  0  0
    1.5691    3.3809    0.0000 C   0  0  0  0  0  0  0  0  0  0  0  0
    2.2836    2.1434    0.0000 C   0  0  0  0  0  0  0  0  0  0  0  0
    2.9980    2.5559    0.0000 C   0  0  0  0  0  0  0  0  0  0  0  0
    3.7125    2.1434    0.0000 C   0  0  0  0  0  0  0  0  0  0  0  0
    4.4270    2.5559    0.0000 C   0  0  0  0  0  0  0  0  0  0  0  0
    4.4270    3.3809    0.0000 C   0  0  0  0  0  0  0  0  0  0  0  0
    5.1414    2.1434    0.0000 C   0  0  0  0  0  0  0  0  0  0  0  0
    5.8559    2.5559    0.0000 C   0  0  0  0  0  0  0  0  0  0  0  0
    6.5704    2.1434    0.0000 C   0  0  0  0  0  0  0  0  0  0  0  0
    7.2849    2.5559    0.0000 C   0  0  0  0  0  0  0  0  0  0  0  0
    7.2849    3.3809    0.0000 C   0  0  0  0  0  0  0  0  0  0  0  0
    7.9993    2.1434    0.0000 C   0  0  0  0  0  0  0  0  0  0  0  0
    8.7138    2.5559    0.0000 O   0  0  0  0  0  0  0  0  0  0  0  0
  1  2  1  0  0  0  0
  2  3  1  0  0  0  0
  2  4  2  0  0  0  0
  4  5  1  0  0  0  0
  5  6  1  0  0  0  0
  6  7  1  0  0  0  0
  7  8  1  0  0  0  0
  7  9  1  0  0  0  0
  9 10  1  0  0  0  0
 10 11  1  0  0  0  0
 11 12  1  0  0  0  0
 12 13  1  0  0  0  0
 12 14  1  0  0  0  0
 14 15  2  0  0  0  0
M  END
> <RowID>
1266

> <Original_SMILES>
CC(C)=CCCC(C)CCCC(C)C=O

> <Canonical_QSARr>
CC(C)=CCCC(C)CCCC(C)C=O

> <InChI_Code_QSARr>
InChI=1S/C14H26O/c1-12(2)7-5-8-13(3)9-6-10-14(4)11-15/h7,11,13-14H,5-6,8-10H2,1-4H3

> <InChI Key_QSARr>
UEGBWDUVDAKUGA-UHFFFAOYSA-N

> <Salt_Solvent>


> <Salt_Solvent_ID>
0

> <Number of connected components>
1

$$$$
Molecule_1267
  Mrv2316 01072400032D          

 16 15  0  0  0  0            999 V2000
   -0.3829    5.5539    0.0000 C   0  0  0  0  0  0  0  0  0  0  0  0
    0.3316    5.1414    0.0000 C   0  0  0  0  0  0  0  0  0  0  0  0
    1.0461    5.5539    0.0000 C   0  0  0  0  0  0  0  0  0  0  0  0
    0.3316    4.3164    0.0000 C   0  0  0  0  0  0  0  0  0  0  0  0
    1.0461    3.9039    0.0000 C   0  0  0  0  0  0  0  0  0  0  0  0
    1.0461    3.0789    0.0000 C   0  0  0  0  0  0  0  0  0  0  0  0
    1.7605    2.6664    0.0000 C   0  0  0  0  0  0  0  0  0  0  0  0
    2.4750    3.0789    0.0000 C   0  0  0  0  0  0  0  0  0  0  0  0
    1.7605    1.8414    0.0000 C   0  0  0  0  0  0  0  0  0  0  0  0
    2.4750    1.4289    0.0000 C   0  0  0  0  0  0  0  0  0  0  0  0
    3.1895    1.8414    0.0000 O   0  0  0  0  0  0  0  0  0  0  0  0
    3.9039    1.4289    0.0000 C   0  0  0  0  0  0  0  0  0  0  0  0
    3.9039    0.6039    0.0000 O   0  0  0  0  0  0  0  0  0  0  0  0
    4.6184    1.8414    0.0000 C   0  0  0  0  0  0  0  0  0  0  0  0
    5.3329    1.4289    0.0000 C   0  0  0  0  0  0  0  0  0  0  0  0
    6.0474    1.8414    0.0000 C   0  0  0  0  0  0  0  0  0  0  0  0
  1  2  1  0  0  0  0
  2  3  1  0  0  0  0
  2  4  2  0  0  0  0
  4  5  1  0  0  0  0
  5  6  1  0  0  0  0
  6  7  1  0  0  0  0
  7  8  1  0  0  0  0
  7  9  2  0  0  0  0
  9 10  1  4  0  0  0
 10 11  1  0  0  0  0
 11 12  1  0  0  0  0
 12 13  2  0  0  0  0
 12 14  1  0  0  0  0
 14 15  1  0  0  0  0
 15 16  1  0  0  0  0
M  END
> <RowID>
1267

> <Original_SMILES>
CC(C)=CCCC(C)=CCOC(=O)CCC

> <Canonical_QSARr>
CC(C)=CCCC(C)=CCOC(=O)CCC

> <InChI_Code_QSARr>
InChI=1S/C14H24O2/c1-5-7-14(15)16-11-10-13(4)9-6-8-12(2)3/h8,10H,5-7,9,11H2,1-4H3

> <InChI Key_QSARr>
ZSBOMYJPSRFZAL-UHFFFAOYSA-N

> <Salt_Solvent>


> <Salt_Solvent_ID>
0

> <Number of connected components>
1

$$$$
Molecule_1268
  Mrv2316 01072400032D          

 24 23  0  0  0  0            999 V2000
   -1.6717    3.9849    0.0000 C   0  0  0  0  0  0  0  0  0  0  0  0
   -0.9572    3.5724    0.0000 C   0  0  0  0  0  0  0  0  0  0  0  0
   -0.2427    3.9849    0.0000 C   0  0  0  0  0  0  0  0  0  0  0  0
    0.4717    3.5724    0.0000 C   0  0  0  0  0  0  0  0  0  0  0  0
    1.1862    3.9849    0.0000 C   0  0  0  0  0  0  0  0  0  0  0  0
    1.9007    3.5724    0.0000 C   0  0  0  0  0  0  0  0  0  0  0  0
    2.6151    3.9849    0.0000 C   0  0  0  0  0  0  0  0  0  0  0  0
    3.3296    3.5724    0.0000 C   0  0  0  0  0  0  0  0  0  0  0  0
    4.0441    3.9849    0.0000 C   0  0  0  0  0  0  0  0  0  0  0  0
    4.7586    3.5724    0.0000 C   0  0  0  0  0  0  0  0  0  0  0  0
    5.4730    3.9849    0.0000 C   0  0  0  0  0  0  0  0  0  0  0  0
    6.1875    3.5724    0.0000 C   0  0  0  0  0  0  0  0  0  0  0  0
    6.9020    3.9849    0.0000 C   0  0  0  0  0  0  0  0  0  0  0  0
    7.6164    3.5724    0.0000 C   0  0  0  0  0  0  0  0  0  0  0  0
    8.3309    3.9849    0.0000 C   0  0  0  0  0  0  0  0  0  0  0  0
    9.0454    3.5724    0.0000 C   0  0  0  0  0  0  0  0  0  0  0  0
    9.7599    3.9849    0.0000 C   0  0  0  0  0  0  0  0  0  0  0  0
   10.4743    3.5724    0.0000 C   0  0  0  0  0  0  0  0  0  0  0  0
   11.1888    3.9849    0.0000 C   0  0  0  0  0  0  0  0  0  0  0  0
   11.9033    3.5724    0.0000 C   0  0  0  0  0  0  0  0  0  0  0  0
   12.6177    3.9849    0.0000 C   0  0  0  0  0  0  0  0  0  0  0  0
   13.3322    3.5724    0.0000 C   0  0  0  0  0  0  0  0  0  0  0  0
   14.0467    3.9849    0.0000 N   0  0  0  0  0  0  0  0  0  0  0  0
   13.3322    2.7474    0.0000 O   0  0  0  0  0  0  0  0  0  0  0  0
  1  2  1  0  0  0  0
  2  3  1  0  0  0  0
  3  4  1  0  0  0  0
  4  5  1  0  0  0  0
  5  6  1  0  0  0  0
  6  7  1  0  0  0  0
  7  8  1  0  0  0  0
  9  8  1  4  0  0  0
  9 10  2  0  0  0  0
 10 11  1  0  0  0  0
 11 12  1  0  0  0  0
 12 13  1  0  0  0  0
 13 14  1  0  0  0  0
 14 15  1  0  0  0  0
 15 16  1  0  0  0  0
 16 17  1  0  0  0  0
 17 18  1  0  0  0  0
 18 19  1  0  0  0  0
 19 20  1  0  0  0  0
 20 21  1  0  0  0  0
 21 22  1  0  0  0  0
 22 23  1  0  0  0  0
 22 24  2  0  0  0  0
M  END
> <RowID>
1268

> <Original_SMILES>
CCCCCCCCC=CCCCCCCCCCCCC(N)=O

> <Canonical_QSARr>
CCCCCCCCC=CCCCCCCCCCCCC(N)=O

> <InChI_Code_QSARr>
InChI=1S/C22H43NO/c1-2-3-4-5-6-7-8-9-10-11-12-13-14-15-16-17-18-19-20-21-22(23)24/h9-10H,2-8,11-21H2,1H3,(H2,23,24)

> <InChI Key_QSARr>
UAUDZVJPLUQNMU-UHFFFAOYSA-N

> <Salt_Solvent>


> <Salt_Solvent_ID>
0

> <Number of connected components>
1

$$$$
Molecule_1269
  Mrv2316 01072400032D          

 22 21  0  0  0  0            999 V2000
   -0.7658    6.9829    0.0000 C   0  0  0  0  0  0  0  0  0  0  0  0
   -0.0513    6.5704    0.0000 C   0  0  0  0  0  0  0  0  0  0  0  0
   -0.0513    5.7454    0.0000 C   0  0  0  0  0  0  0  0  0  0  0  0
    0.6631    5.3329    0.0000 C   0  0  0  0  0  0  0  0  0  0  0  0
    0.6631    4.5079    0.0000 C   0  0  0  0  0  0  0  0  0  0  0  0
    1.3776    4.0954    0.0000 C   0  0  0  0  0  0  0  0  0  0  0  0
    1.3776    3.2704    0.0000 C   0  0  0  0  0  0  0  0  0  0  0  0
    2.0921    2.8579    0.0000 C   0  0  0  0  0  0  0  0  0  0  0  0
    2.8066    3.2704    0.0000 C   0  0  0  0  0  0  0  0  0  0  0  0
    3.5210    2.8579    0.0000 C   0  0  0  0  0  0  0  0  0  0  0  0
    4.2355    3.2704    0.0000 C   0  0  0  0  0  0  0  0  0  0  0  0
    4.9500    2.8579    0.0000 C   0  0  0  0  0  0  0  0  0  0  0  0
    5.6644    3.2704    0.0000 C   0  0  0  0  0  0  0  0  0  0  0  0
    6.3789    2.8579    0.0000 C   0  0  0  0  0  0  0  0  0  0  0  0
    7.0934    3.2704    0.0000 C   0  0  0  0  0  0  0  0  0  0  0  0
    7.8078    2.8579    0.0000 C   0  0  0  0  0  0  0  0  0  0  0  0
    8.5223    3.2704    0.0000 C   0  0  0  0  0  0  0  0  0  0  0  0
    9.2368    2.8579    0.0000 C   0  0  0  0  0  0  0  0  0  0  0  0
    9.2368    2.0329    0.0000 O   0  0  0  0  0  0  0  0  0  0  0  0
    9.9513    3.2704    0.0000 O   0  0  0  0  0  0  0  0  0  0  0  0
   10.6657    2.8579    0.0000 C   0  0  0  0  0  0  0  0  0  0  0  0
   11.3802    3.2704    0.0000 C   0  0  0  0  0  0  0  0  0  0  0  0
  1  2  1  0  0  0  0
  2  3  1  0  0  0  0
  3  4  1  0  0  0  0
  4  5  1  0  0  0  0
  6  5  1  4  0  0  0
  6  7  2  0  0  0  0
  7  8  1  0  0  0  0
  9  8  1  4  0  0  0
  9 10  2  0  0  0  0
 10 11  1  0  0  0  0
 11 12  1  0  0  0  0
 12 13  1  0  0  0  0
 13 14  1  0  0  0  0
 14 15  1  0  0  0  0
 15 16  1  0  0  0  0
 16 17  1  0  0  0  0
 17 18  1  0  0  0  0
 18 19  2  0  0  0  0
 18 20  1  0  0  0  0
 20 21  1  0  0  0  0
 21 22  1  0  0  0  0
M  END
> <RowID>
1269

> <Original_SMILES>
CCCCCC=CCC=CCCCCCCCC(=O)OCC

> <Canonical_QSARr>
CCCCCC=CCC=CCCCCCCCC(=O)OCC

> <InChI_Code_QSARr>
InChI=1S/C20H36O2/c1-3-5-6-7-8-9-10-11-12-13-14-15-16-17-18-19-20(21)22-4-2/h8-9,11-12H,3-7,10,13-19H2,1-2H3

> <InChI Key_QSARr>
FMMOOAYVCKXGMF-UHFFFAOYSA-N

> <Salt_Solvent>


> <Salt_Solvent_ID>
0

> <Number of connected components>
1

$$$$
Molecule_1271
  Mrv2316 01072400032D          

 21 20  0  0  0  0            999 V2000
    9.1855    6.1283    0.0000 C   0  0  0  0  0  0  0  0  0  0  0  0
    9.9000    5.7158    0.0000 C   0  0  0  0  0  0  0  0  0  0  0  0
   10.6145    6.1283    0.0000 C   0  0  0  0  0  0  0  0  0  0  0  0
   11.3289    5.7158    0.0000 C   0  0  0  0  0  0  0  0  0  0  0  0
   12.0434    6.1283    0.0000 C   0  0  0  0  0  0  0  0  0  0  0  0
   12.7579    5.7158    0.0000 C   0  0  0  0  0  0  0  0  0  0  0  0
   13.4723    6.1283    0.0000 C   0  0  0  0  0  0  0  0  0  0  0  0
   13.4723    6.9533    0.0000 O   0  0  0  0  0  0  0  0  0  0  0  0
   14.1868    5.7158    0.0000 C   0  0  0  0  0  0  0  0  0  0  0  0
   14.9013    6.1283    0.0000 C   0  0  0  0  0  0  0  0  0  0  0  0
   15.6158    5.7158    0.0000 C   0  0  0  0  0  0  0  0  0  0  0  0
   16.3302    6.1283    0.0000 C   0  0  0  0  0  0  0  0  0  0  0  0
   17.0447    5.7158    0.0000 C   0  0  0  0  0  0  0  0  0  0  0  0
   17.7592    6.1283    0.0000 C   0  0  0  0  0  0  0  0  0  0  0  0
   18.4736    5.7158    0.0000 C   0  0  0  0  0  0  0  0  0  0  0  0
   19.1881    6.1283    0.0000 C   0  0  0  0  0  0  0  0  0  0  0  0
   19.9026    5.7158    0.0000 C   0  0  0  0  0  0  0  0  0  0  0  0
   20.6171    6.1283    0.0000 C   0  0  0  0  0  0  0  0  0  0  0  0
   21.3315    5.7158    0.0000 C   0  0  0  0  0  0  0  0  0  0  0  0
   22.0460    6.1283    0.0000 O   0  0  0  0  0  0  0  0  0  0  0  0
   21.3315    4.8908    0.0000 O   0  0  0  0  0  0  0  0  0  0  0  0
  1  2  1  0  0  0  0
  2  3  1  0  0  0  0
  3  4  1  0  0  0  0
  4  5  1  0  0  0  0
  5  6  1  0  0  0  0
  6  7  1  0  0  0  0
  7  8  1  0  0  0  0
  7  9  1  0  0  0  0
  9 10  1  0  0  0  0
 10 11  1  0  0  0  0
 11 12  1  0  0  0  0
 12 13  1  0  0  0  0
 13 14  1  0  0  0  0
 14 15  1  0  0  0  0
 15 16  1  0  0  0  0
 16 17  1  0  0  0  0
 17 18  1  0  0  0  0
 18 19  1  0  0  0  0
 19 20  1  0  0  0  0
 19 21  2  0  0  0  0
M  END
> <RowID>
1271

> <Original_SMILES>
CCCCCCC(O)CCCCCCCCCCC(O)=O

> <Canonical_QSARr>
CCCCCCC(O)CCCCCCCCCCC(O)=O

> <InChI_Code_QSARr>
InChI=1S/C18H36O3/c1-2-3-4-11-14-17(19)15-12-9-7-5-6-8-10-13-16-18(20)21/h17,19H,2-16H2,1H3,(H,20,21)

> <InChI Key_QSARr>
ULQISTXYYBZJSJ-UHFFFAOYSA-N

> <Salt_Solvent>


> <Salt_Solvent_ID>
0

> <Number of connected components>
1

$$$$
Molecule_1272
  Mrv2316 01072400032D          

 18 17  0  0  0  0            999 V2000
    5.9961    4.2868    0.0000 C   0  0  0  0  0  0  0  0  0  0  0  0
    6.7105    4.6993    0.0000 C   0  0  0  0  0  0  0  0  0  0  0  0
    7.4250    4.2868    0.0000 C   0  0  0  0  0  0  0  0  0  0  0  0
    8.1395    4.6993    0.0000 C   0  0  0  0  0  0  0  0  0  0  0  0
    8.8539    4.2868    0.0000 C   0  0  0  0  0  0  0  0  0  0  0  0
    9.5684    4.6993    0.0000 C   0  0  0  0  0  0  0  0  0  0  0  0
   10.2829    4.2868    0.0000 C   0  0  0  0  0  0  0  0  0  0  0  0
   10.9974    4.6993    0.0000 C   0  0  0  0  0  0  0  0  0  0  0  0
   11.7118    4.2868    0.0000 C   0  0  0  0  0  0  0  0  0  0  0  0
   12.4263    4.6993    0.0000 C   0  0  0  0  0  0  0  0  0  0  0  0
   13.1408    4.2868    0.0000 C   0  0  0  0  0  0  0  0  0  0  0  0
   13.8552    4.6993    0.0000 C   0  0  0  0  0  0  0  0  0  0  0  0
   14.5697    4.2868    0.0000 O   0  0  0  0  0  0  0  0  0  0  0  0
   15.2842    4.6993    0.0000 C   0  0  0  0  0  0  0  0  0  0  0  0
   15.2842    5.5243    0.0000 O   0  0  0  0  0  0  0  0  0  0  0  0
   15.9987    4.2868    0.0000 C   0  0  0  0  0  0  0  0  0  0  0  0
   16.7131    4.6993    0.0000 C   0  0  0  0  0  0  0  0  0  0  0  0
   15.9987    3.4618    0.0000 O   0  0  0  0  0  0  0  0  0  0  0  0
  1  2  1  0  0  0  0
  2  3  1  0  0  0  0
  3  4  1  0  0  0  0
  4  5  1  0  0  0  0
  5  6  1  0  0  0  0
  6  7  1  0  0  0  0
  7  8  1  0  0  0  0
  8  9  1  0  0  0  0
  9 10  1  0  0  0  0
 10 11  1  0  0  0  0
 11 12  1  0  0  0  0
 12 13  1  0  0  0  0
 13 14  1  0  0  0  0
 14 15  2  0  0  0  0
 14 16  1  0  0  0  0
 16 17  1  0  0  0  0
 16 18  1  0  0  0  0
M  END
> <RowID>
1272

> <Original_SMILES>
CCCCCCCCCCCCOC(=O)C(C)O

> <Canonical_QSARr>
CCCCCCCCCCCCOC(=O)C(C)O

> <InChI_Code_QSARr>
InChI=1S/C15H30O3/c1-3-4-5-6-7-8-9-10-11-12-13-18-15(17)14(2)16/h14,16H,3-13H2,1-2H3

> <InChI Key_QSARr>
QQQMUBLXDAFBRH-UHFFFAOYSA-N

> <Salt_Solvent>


> <Salt_Solvent_ID>
0

> <Number of connected components>
1

$$$$
Molecule_1273
  Mrv2316 01072400032D          

 33 33  0  0  0  0            999 V2000
   -3.2476    5.1000    0.0000 O   0  0  0  0  0  0  0  0  0  0  0  0
   -3.2476    4.2750    0.0000 C   0  0  0  0  0  0  0  0  0  0  0  0
   -3.9621    3.8625    0.0000 O   0  0  0  0  0  0  0  0  0  0  0  0
   -2.5331    3.8625    0.0000 C   0  0  0  0  0  0  0  0  0  0  0  0
   -2.5331    3.0375    0.0000 C   0  0  0  0  0  0  0  0  0  0  0  0
   -1.8187    2.6250    0.0000 C   0  0  0  0  0  0  0  0  0  0  0  0
   -1.8187    1.8000    0.0000 C   0  0  0  0  0  0  0  0  0  0  0  0
   -1.1042    1.3875    0.0000 C   0  0  0  0  0  0  0  0  0  0  0  0
   -1.1042    0.5625    0.0000 N   0  0  0  0  0  0  0  0  0  0  0  0
   -0.3897    0.1500    0.0000 C   0  0  0  0  0  0  0  0  0  0  0  0
   -0.3897   -0.6750    0.0000 N   0  0  0  0  0  0  0  0  0  0  0  0
    0.3248   -1.0875    0.0000 C   0  0  0  0  0  0  0  0  0  0  0  0
    0.3248   -1.9125    0.0000 N   0  0  0  0  0  0  0  0  0  0  0  0
    1.0392   -2.3250    0.0000 C   0  0  0  0  0  0  0  0  0  0  0  0
    1.0392   -3.1500    0.0000 C   0  0  0  0  0  0  0  0  0  0  0  0
    1.7537   -3.5625    0.0000 C   0  0  0  0  0  0  0  0  0  0  0  0
    1.7537   -4.3875    0.0000 C   0  0  0  0  0  0  0  0  0  0  0  0
    2.4682   -4.8000    0.0000 C   0  0  0  0  0  0  0  0  0  0  0  0
    2.4682   -5.6250    0.0000 C   0  0  0  0  0  0  0  0  0  0  0  0
    3.1826   -6.0375    0.0000 O   0  0  0  0  0  0  0  0  0  0  0  0
    1.7537   -6.0375    0.0000 O   0  0  0  0  0  0  0  0  0  0  0  0
    1.0392   -0.6750    0.0000 N   0  0  0  0  0  0  0  0  0  0  0  0
    1.0392    0.1500    0.0000 C   0  0  0  0  0  0  0  0  0  0  0  0
    1.7537    0.5625    0.0000 N   0  0  0  0  0  0  0  0  0  0  0  0
    2.4682    0.1500    0.0000 C   0  0  0  0  0  0  0  0  0  0  0  0
    3.1826    0.5625    0.0000 C   0  0  0  0  0  0  0  0  0  0  0  0
    3.8971    0.1500    0.0000 C   0  0  0  0  0  0  0  0  0  0  0  0
    4.6116    0.5625    0.0000 C   0  0  0  0  0  0  0  0  0  0  0  0
    5.3260    0.1500    0.0000 C   0  0  0  0  0  0  0  0  0  0  0  0
    6.0405    0.5625    0.0000 C   0  0  0  0  0  0  0  0  0  0  0  0
    6.0405    1.3875    0.0000 O   0  0  0  0  0  0  0  0  0  0  0  0
    6.7550    0.1500    0.0000 O   0  0  0  0  0  0  0  0  0  0  0  0
    0.3248    0.5625    0.0000 N   0  0  0  0  0  0  0  0  0  0  0  0
  1  2  1  0  0  0  0
  2  3  2  0  0  0  0
  2  4  1  0  0  0  0
  4  5  1  0  0  0  0
  5  6  1  0  0  0  0
  6  7  1  0  0  0  0
  7  8  1  0  0  0  0
  8  9  1  0  0  0  0
  9 10  1  0  0  0  0
 11 10  1  0  0  0  0
 12 11  2  0  0  0  0
 12 13  1  0  0  0  0
 13 14  1  0  0  0  0
 14 15  1  0  0  0  0
 15 16  1  0  0  0  0
 16 17  1  0  0  0  0
 17 18  1  0  0  0  0
 18 19  1  0  0  0  0
 19 20  1  0  0  0  0
 19 21  2  0  0  0  0
 22 12  1  0  0  0  0
 23 22  2  0  0  0  0
 23 24  1  0  0  0  0
 24 25  1  0  0  0  0
 25 26  1  0  0  0  0
 26 27  1  0  0  0  0
 27 28  1  0  0  0  0
 28 29  1  0  0  0  0
 29 30  1  0  0  0  0
 30 31  1  0  0  0  0
 30 32  2  0  0  0  0
 33 23  1  0  0  0  0
 10 33  2  0  0  0  0
M  END
> <RowID>
1273

> <Original_SMILES>
OC(=O)CCCCCNC1N=C(NCCCCCC(O)=O)N=C(NCCCCCC(O)=O)N=1

> <Canonical_QSARr>
OC(=O)CCCCCNC1N=C(NCCCCCC(O)=O)N=C(NCCCCCC(O)=O)N=1

> <InChI_Code_QSARr>
InChI=1S/C21H36N6O6/c28-16(29)10-4-1-7-13-22-19-25-20(23-14-8-2-5-11-17(30)31)27-21(26-19)24-15-9-3-6-12-18(32)33/h1-15H2,(H,28,29)(H,30,31)(H,32,33)(H3,22,23,24,25,26,27)

> <InChI Key_QSARr>
BKKWPPMEXIXECW-UHFFFAOYSA-N

> <Salt_Solvent>


> <Salt_Solvent_ID>
0

> <Number of connected components>
1

$$$$
Molecule_1274
  Mrv2316 01072400032D          

  3  2  0  0  0  0            999 V2000
    1.2375   -0.7145    0.0000 O   0  0  0  0  0  0  0  0  0  0  0  0
    1.9520   -1.1270    0.0000 C   0  0  0  0  0  0  0  0  0  0  0  0
    2.6664   -0.7145    0.0000 O   0  0  0  0  0  0  0  0  0  0  0  0
  1  2  1  0  0  0  0
  2  3  2  0  0  0  0
M  END
> <RowID>
1274

> <Original_SMILES>
[Na+].[O-]C=O

> <Canonical_QSARr>
OC=O

> <InChI_Code_QSARr>
InChI=1S/CH2O2/c2-1-3/h1H,(H,2,3)

> <InChI Key_QSARr>
BDAGIHXWWSANSR-UHFFFAOYSA-N

> <Salt_Solvent>
[Na+]

> <Salt_Solvent_ID>
110

> <Number of connected components>
2

$$$$
Molecule_1275
  Mrv2316 01072400032D          

 12 13  0  0  0  0            999 V2000
   -0.6284   -0.6979    0.0000 N   0  0  0  0  0  0  0  0  0  0  0  0
   -0.1435   -1.3654    0.0000 S   0  0  0  0  0  0  0  0  0  0  0  0
   -0.8580   -1.7779    0.0000 O   0  0  0  0  0  0  0  0  0  0  0  0
    0.1921   -2.1190    0.0000 O   0  0  0  0  0  0  0  0  0  0  0  0
    0.6411   -1.1104    0.0000 C   0  0  0  0  0  0  0  0  0  0  0  0
    0.6411   -0.2854    0.0000 C   0  0  0  0  0  0  0  0  0  0  0  0
    1.3556    0.1271    0.0000 C   0  0  0  0  0  0  0  0  0  0  0  0
    2.0701   -0.2854    0.0000 C   0  0  0  0  0  0  0  0  0  0  0  0
    2.0701   -1.1104    0.0000 C   0  0  0  0  0  0  0  0  0  0  0  0
    1.3556   -1.5229    0.0000 C   0  0  0  0  0  0  0  0  0  0  0  0
   -0.1435   -0.0305    0.0000 C   0  0  0  0  0  0  0  0  0  0  0  0
   -0.3984    0.7541    0.0000 O   0  0  0  0  0  0  0  0  0  0  0  0
  2  1  1  0  0  0  0
  2  3  2  0  0  0  0
  2  4  2  0  0  0  0
  5  2  1  0  0  0  0
  5  6  2  0  0  0  0
  6  7  1  0  0  0  0
  7  8  2  0  0  0  0
  8  9  1  0  0  0  0
  9 10  2  0  0  0  0
 10  5  1  0  0  0  0
 11  6  1  0  0  0  0
  1 11  1  0  0  0  0
 11 12  2  0  0  0  0
M  END
> <RowID>
1275

> <Original_SMILES>
[Na+].O=C1[N-]S(=O)(=O)C2=CC=CC=C12

> <Canonical_QSARr>
O=C1NS(=O)(=O)C2C=CC=CC1=2

> <InChI_Code_QSARr>
InChI=1S/C7H5NO3S/c9-7-5-3-1-2-4-6(5)12(10,11)8-7/h1-4H,(H,8,9)

> <InChI Key_QSARr>
CVHZOJJKTDOEJC-UHFFFAOYSA-N

> <Salt_Solvent>
[Na+]

> <Salt_Solvent_ID>
110

> <Number of connected components>
2

$$$$
Molecule_1276
  Mrv2316 01072400032D          

  9  8  0  0  0  0            999 V2000
    2.9980    2.5559    0.0000 C   0  0  0  0  0  0  0  0  0  0  0  0
    3.7125    2.1434    0.0000 C   0  0  0  0  0  0  0  0  0  0  0  0
    4.4270    2.5559    0.0000 C   0  0  0  0  0  0  0  0  0  0  0  0
    5.1414    2.1434    0.0000 C   0  0  0  0  0  0  0  0  0  0  0  0
    5.8559    2.5559    0.0000 C   0  0  0  0  0  0  0  0  0  0  0  0
    6.5704    2.1434    0.0000 C   0  0  0  0  0  0  0  0  0  0  0  0
    7.2849    2.5559    0.0000 C   0  0  0  0  0  0  0  0  0  0  0  0
    7.9993    2.1434    0.0000 C   0  0  0  0  0  0  0  0  0  0  0  0
    8.7138    2.5559    0.0000 Cl  0  0  0  0  0  0  0  0  0  0  0  0
  1  2  1  0  0  0  0
  2  3  1  0  0  0  0
  3  4  1  0  0  0  0
  4  5  1  0  0  0  0
  5  6  1  0  0  0  0
  6  7  1  0  0  0  0
  7  8  1  0  0  0  0
  8  9  1  0  0  0  0
M  END
> <RowID>
1276

> <Original_SMILES>
CCCCCCCCCl

> <Canonical_QSARr>
CCCCCCCCCl

> <InChI_Code_QSARr>
InChI=1S/C8H17Cl/c1-2-3-4-5-6-7-8-9/h2-8H2,1H3

> <InChI Key_QSARr>
CNDHHGUSRIZDSL-UHFFFAOYSA-N

> <Salt_Solvent>


> <Salt_Solvent_ID>
0

> <Number of connected components>
1

$$$$
Molecule_1277
  Mrv2316 01072400032D          

 20 20  0  0  0  0            999 V2000
    2.6654    0.2886    0.0000 C   0  0  0  0  0  0  0  0  0  0  0  0
    2.1804    0.9560    0.0000 C   0  0  0  0  0  0  0  0  0  0  0  0
    2.8479    1.4409    0.0000 C   0  0  0  0  0  0  0  0  0  0  0  0
    1.5130    0.4711    0.0000 C   0  0  0  0  0  0  0  0  0  0  0  0
    1.6955    1.6234    0.0000 O   0  0  0  0  0  0  0  0  0  0  0  0
    0.8750    1.5372    0.0000 C   0  0  0  0  0  0  0  0  0  0  0  0
    0.5395    0.7835    0.0000 O   0  0  0  0  0  0  0  0  0  0  0  0
    0.3901    2.2046    0.0000 N   0  0  0  0  0  0  0  0  0  0  0  0
    0.6450    2.9893    0.0000 C   0  0  0  0  0  0  0  0  0  0  0  0
   -0.0224    3.4742    0.0000 C   0  0  0  0  0  0  0  0  0  0  0  0
   -0.0224    4.2992    0.0000 O   0  0  0  0  0  0  0  0  0  0  0  0
   -0.6898    2.9893    0.0000 C   0  0  0  0  0  0  0  0  0  0  0  0
   -0.4349    2.2046    0.0000 C   0  0  0  0  0  0  0  0  0  0  0  0
   -0.9198    1.5372    0.0000 C   0  0  0  0  0  0  0  0  0  0  0  0
   -0.5843    0.7835    0.0000 O   0  0  0  0  0  0  0  0  0  0  0  0
   -1.7403    1.6234    0.0000 O   0  0  0  0  0  0  0  0  0  0  0  0
   -2.2252    0.9560    0.0000 C   0  0  0  0  0  0  0  0  0  0  0  0
   -2.7101    0.2886    0.0000 C   0  0  0  0  0  0  0  0  0  0  0  0
   -2.8927    1.4409    0.0000 C   0  0  0  0  0  0  0  0  0  0  0  0
   -1.5578    0.4711    0.0000 C   0  0  0  0  0  0  0  0  0  0  0  0
  1  2  1  0  0  0  0
  2  3  1  0  0  0  0
  2  4  1  0  0  0  0
  2  5  1  0  0  0  0
  5  6  1  0  0  0  0
  6  7  2  0  0  0  0
  6  8  1  0  0  0  0
  9  8  1  0  0  0  0
 10  9  1  0  0  0  0
 10 11  2  0  0  0  0
 12 10  1  0  0  0  0
 13 12  1  0  0  0  0
  8 13  1  0  0  0  0
 13 14  1  0  0  0  0
 14 15  2  0  0  0  0
 14 16  1  0  0  0  0
 16 17  1  0  0  0  0
 17 18  1  0  0  0  0
 17 19  1  0  0  0  0
 17 20  1  0  0  0  0
M  END
> <RowID>
1277

> <Original_SMILES>
CC(C)(C)OC(=O)N1CC(=O)CC1C(=O)OC(C)(C)C

> <Canonical_QSARr>
CC(C)(C)OC(=O)N1CC(=O)CC1C(=O)OC(C)(C)C

> <InChI_Code_QSARr>
InChI=1S/C14H23NO5/c1-13(2,3)19-11(17)10-7-9(16)8-15(10)12(18)20-14(4,5)6/h10H,7-8H2,1-6H3

> <InChI Key_QSARr>
MPNWQUWKRDADHK-UHFFFAOYSA-N

> <Salt_Solvent>


> <Salt_Solvent_ID>
0

> <Number of connected components>
1

$$$$
Molecule_1278
  Mrv2316 01072400032D          

 11 12  0  0  0  0            999 V2000
   -0.7625    0.1433    0.0000 C   0  0  0  0  0  0  0  0  0  0  0  0
    0.0500    0.0000    0.0000 C   0  0  0  0  0  0  0  0  0  0  0  0
   -0.2322   -0.7752    0.0000 C   0  0  0  0  0  0  0  0  0  0  0  0
    0.0500    0.8250    0.0000 O   0  0  0  0  0  0  0  0  0  0  0  0
    0.7645    1.2375    0.0000 C   0  0  0  0  0  0  0  0  0  0  0  0
    0.7645    2.0625    0.0000 C   0  0  0  0  0  0  0  0  0  0  0  0
    1.4789    0.8250    0.0000 C   0  0  0  0  0  0  0  0  0  0  0  0
    1.4789    0.0000    0.0000 C   0  0  0  0  0  0  0  0  0  0  0  0
    0.7645   -0.4125    0.0000 C   0  0  0  0  0  0  0  0  0  0  0  0
    0.6270    0.1375    0.0000 C   0  0  0  0  0  0  0  0  0  0  0  0
    0.6270    0.6875    0.0000 C   0  0  0  0  0  0  0  0  0  0  0  0
  1  2  1  0  0  0  0
  2  3  1  0  0  0  0
  4  2  1  0  0  0  0
  5  4  1  0  0  0  0
  5  6  1  0  0  0  0
  5  7  1  0  0  0  0
  7  8  1  0  0  0  0
  8  9  1  0  0  0  0
  2  9  1  0  0  0  0
  9 10  1  0  0  0  0
 10 11  1  0  0  0  0
 11  5  1  0  0  0  0
M  END
> <RowID>
1278

> <Original_SMILES>
CC1(C)OC2(C)CCC1CC2

> <Canonical_QSARr>
CC1(C)OC2(C)CCC1CC2

> <InChI_Code_QSARr>
InChI=1S/C10H18O/c1-9(2)8-4-6-10(3,11-9)7-5-8/h8H,4-7H2,1-3H3

> <InChI Key_QSARr>
WEEGYLXZBRQIMU-UHFFFAOYSA-N

> <Salt_Solvent>


> <Salt_Solvent_ID>
0

> <Number of connected components>
1

$$$$
Molecule_1280
  Mrv2316 01072400032D          

 13 13  0  0  0  0            999 V2000
    1.4670    1.4152    0.0000 C   0  0  0  0  0  0  0  0  0  0  0  0
    0.6824    1.1602    0.0000 C   0  0  0  0  0  0  0  0  0  0  0  0
    0.0149    1.6452    0.0000 C   0  0  0  0  0  0  0  0  0  0  0  0
    0.0149    2.4702    0.0000 C   0  0  0  0  0  0  0  0  0  0  0  0
    0.0149    3.2952    0.0000 N   0  0  0  0  0  0  0  0  0  0  0  0
   -0.6525    1.1602    0.0000 C   0  0  0  0  0  0  0  0  0  0  0  0
   -1.4371    1.4152    0.0000 N   0  0  0  0  0  0  0  0  0  0  0  0
   -0.3976    0.3756    0.0000 S   0  0  0  0  0  0  0  0  0  0  0  0
    0.4274    0.3756    0.0000 C   0  0  0  0  0  0  0  0  0  0  0  0
    0.9124   -0.2918    0.0000 C   0  0  0  0  0  0  0  0  0  0  0  0
    1.7328   -0.2056    0.0000 O   0  0  0  0  0  0  0  0  0  0  0  0
    0.5768   -1.0455    0.0000 O   0  0  0  0  0  0  0  0  0  0  0  0
    1.0617   -1.7129    0.0000 C   0  0  0  0  0  0  0  0  0  0  0  0
  1  2  1  0  0  0  0
  3  2  1  0  0  0  0
  3  4  1  0  0  0  0
  4  5  3  0  0  0  0
  6  3  2  0  0  0  0
  6  7  1  0  0  0  0
  8  6  1  0  0  0  0
  9  8  1  0  0  0  0
  2  9  2  0  0  0  0
  9 10  1  0  0  0  0
 10 11  2  0  0  0  0
 10 12  1  0  0  0  0
 12 13  1  0  0  0  0
M  END
> <RowID>
1280

> <Original_SMILES>
CC1C(C#N)=C(N)SC=1C(=O)OC

> <Canonical_QSARr>
CC1C(C#N)=C(N)SC=1C(=O)OC

> <InChI_Code_QSARr>
InChI=1S/C8H8N2O2S/c1-4-5(3-9)7(10)13-6(4)8(11)12-2/h10H2,1-2H3

> <InChI Key_QSARr>
PDDIXJQTRLVRCG-UHFFFAOYSA-N

> <Salt_Solvent>


> <Salt_Solvent_ID>
0

> <Number of connected components>
1

$$$$
Molecule_1281
  Mrv2316 01072400032D          

 21 20  0  0  0  0            999 V2000
    8.4711    5.7158    0.0000 C   0  0  0  0  0  0  0  0  0  0  0  0
    9.1855    6.1283    0.0000 C   0  0  0  0  0  0  0  0  0  0  0  0
    9.9000    5.7158    0.0000 C   0  0  0  0  0  0  0  0  0  0  0  0
   10.6145    6.1283    0.0000 C   0  0  0  0  0  0  0  0  0  0  0  0
   11.3289    5.7158    0.0000 C   0  0  0  0  0  0  0  0  0  0  0  0
   12.0434    6.1283    0.0000 C   0  0  0  0  0  0  0  0  0  0  0  0
   12.7579    5.7158    0.0000 C   0  0  0  0  0  0  0  0  0  0  0  0
   13.4723    6.1283    0.0000 C   0  0  0  0  0  0  0  0  0  0  0  0
   14.1868    5.7158    0.0000 C   0  0  0  0  0  0  0  0  0  0  0  0
   14.9013    6.1283    0.0000 C   0  0  0  0  0  0  0  0  0  0  0  0
   15.6158    5.7158    0.0000 C   0  0  0  0  0  0  0  0  0  0  0  0
   16.3302    6.1283    0.0000 C   0  0  0  0  0  0  0  0  0  0  0  0
   17.0447    5.7158    0.0000 C   0  0  0  0  0  0  0  0  0  0  0  0
   17.7592    6.1283    0.0000 C   0  0  0  0  0  0  0  0  0  0  0  0
   18.4736    5.7158    0.0000 C   0  0  0  0  0  0  0  0  0  0  0  0
   19.1881    6.1283    0.0000 C   0  0  0  0  0  0  0  0  0  0  0  0
   19.9026    5.7158    0.0000 C   0  0  0  0  0  0  0  0  0  0  0  0
   20.6171    6.1283    0.0000 C   0  0  0  0  0  0  0  0  0  0  0  0
   20.6171    6.9533    0.0000 O   0  0  0  0  0  0  0  0  0  0  0  0
   21.3315    5.7158    0.0000 O   0  0  0  0  0  0  0  0  0  0  0  0
   22.0460    6.1283    0.0000 C   0  0  0  0  0  0  0  0  0  0  0  0
  1  2  1  0  0  0  0
  2  3  1  0  0  0  0
  3  4  1  0  0  0  0
  4  5  1  0  0  0  0
  5  6  1  0  0  0  0
  6  7  1  0  0  0  0
  7  8  1  0  0  0  0
  8  9  1  0  0  0  0
  9 10  1  0  0  0  0
 10 11  1  0  0  0  0
 11 12  1  0  0  0  0
 12 13  1  0  0  0  0
 13 14  1  0  0  0  0
 14 15  1  0  0  0  0
 15 16  1  0  0  0  0
 16 17  1  0  0  0  0
 17 18  1  0  0  0  0
 18 19  2  0  0  0  0
 18 20  1  0  0  0  0
 20 21  1  0  0  0  0
M  END
> <RowID>
1281

> <Original_SMILES>
CCCCCCCCCCCCCCCCCC(=O)OC

> <Canonical_QSARr>
CCCCCCCCCCCCCCCCCC(=O)OC

> <InChI_Code_QSARr>
InChI=1S/C19H38O2/c1-3-4-5-6-7-8-9-10-11-12-13-14-15-16-17-18-19(20)21-2/h3-18H2,1-2H3

> <InChI Key_QSARr>
HPEUJPJOZXNMSJ-UHFFFAOYSA-N

> <Salt_Solvent>


> <Salt_Solvent_ID>
0

> <Number of connected components>
1

$$$$
Molecule_1282
  Mrv2316 01072400032D          

  6  6  0  0  0  0            999 V2000
    0.5678    1.9393    0.0000 S   0  0  0  0  0  0  0  0  0  0  0  0
    0.5678    1.1143    0.0000 C   0  0  0  0  0  0  0  0  0  0  0  0
   -0.0997    0.6294    0.0000 N   0  0  0  0  0  0  0  0  0  0  0  0
    0.1553   -0.1553    0.0000 C   0  0  0  0  0  0  0  0  0  0  0  0
    0.9803   -0.1553    0.0000 C   0  0  0  0  0  0  0  0  0  0  0  0
    1.2352    0.6294    0.0000 N   0  0  0  0  0  0  0  0  0  0  0  0
  1  2  2  0  0  0  0
  3  2  1  0  0  0  0
  4  3  1  0  0  0  0
  5  4  1  0  0  0  0
  6  5  1  0  0  0  0
  2  6  1  0  0  0  0
M  END
> <RowID>
1282

> <Original_SMILES>
S=C1NCCN1

> <Canonical_QSARr>
S=C1NCCN1

> <InChI_Code_QSARr>
InChI=1S/C3H6N2S/c6-3-4-1-2-5-3/h1-2H2,(H2,4,5,6)

> <InChI Key_QSARr>
PDQAZBWRQCGBEV-UHFFFAOYSA-N

> <Salt_Solvent>


> <Salt_Solvent_ID>
0

> <Number of connected components>
1

$$$$
Molecule_1283
  Mrv2316 01072400032D          

  7  7  0  0  0  0            999 V2000
    0.7145    2.0625    0.0000 C   0  0  0  0  0  0  0  0  0  0  0  0
    0.7145    1.2375    0.0000 C   0  0  0  0  0  0  0  0  0  0  0  0
    0.0000    0.8250    0.0000 C   0  0  0  0  0  0  0  0  0  0  0  0
    0.0000   -0.0000    0.0000 C   0  0  0  0  0  0  0  0  0  0  0  0
    0.7145   -0.4125    0.0000 C   0  0  0  0  0  0  0  0  0  0  0  0
    1.4289    0.0000    0.0000 C   0  0  0  0  0  0  0  0  0  0  0  0
    1.4289    0.8250    0.0000 C   0  0  0  0  0  0  0  0  0  0  0  0
  1  2  1  0  0  0  0
  3  2  2  0  0  0  0
  4  3  1  0  0  0  0
  5  4  2  0  0  0  0
  6  5  1  0  0  0  0
  7  6  2  0  0  0  0
  2  7  1  0  0  0  0
M  END
> <RowID>
1283

> <Original_SMILES>
CC1C=CC=CC=1.[O-][N+]%91=O.[O-][N+]%92=O.[*]%92.[*]%91

> <Canonical_QSARr>
CC1C=CC=CC=1

> <InChI_Code_QSARr>
InChI=1S/C7H8/c1-7-5-3-2-4-6-7/h2-6H,1H3

> <InChI Key_QSARr>
YXFVVABEGXRONW-UHFFFAOYSA-N

> <Salt_Solvent>
[O-][N+]%91=O.[*]%91

> <Salt_Solvent_ID>
1687

> <Number of connected components>
3

$$$$
Molecule_1284
  Mrv2316 01072400032D          

 29 30  0  0  0  0            999 V2000
   -1.4536    2.4323    0.0000 C   0  0  0  0  0  0  0  0  0  0  0  0
   -1.4536    1.6073    0.0000 O   0  0  0  0  0  0  0  0  0  0  0  0
   -0.7391    1.1948    0.0000 C   0  0  0  0  0  0  0  0  0  0  0  0
   -0.7391    0.3698    0.0000 C   0  0  0  0  0  0  0  0  0  0  0  0
   -0.0246   -0.0427    0.0000 C   0  0  0  0  0  0  0  0  0  0  0  0
    0.6898    0.3698    0.0000 C   0  0  0  0  0  0  0  0  0  0  0  0
    1.4043   -0.0427    0.0000 C   0  0  0  0  0  0  0  0  0  0  0  0
    1.4043   -0.8677    0.0000 C   0  0  0  0  0  0  0  0  0  0  0  0
    0.6898   -1.2802    0.0000 C   0  0  0  0  0  0  0  0  0  0  0  0
   -0.0246   -1.6927    0.0000 N   0  0  0  0  0  0  0  0  0  0  0  0
    2.1188   -1.2802    0.0000 C   0  0  0  0  0  0  0  0  0  0  0  0
    2.1188   -2.1052    0.0000 O   0  0  0  0  0  0  0  0  0  0  0  0
    2.8332   -0.8677    0.0000 O   0  0  0  0  0  0  0  0  0  0  0  0
    3.5477   -1.2802    0.0000 C   0  0  0  0  0  0  0  0  0  0  0  0
    4.2622   -0.8677    0.0000 C   0  0  0  0  0  0  0  0  0  0  0  0
    4.9767   -1.2802    0.0000 C   0  0  0  0  0  0  0  0  0  0  0  0
    5.6911   -0.8677    0.0000 C   0  0  0  0  0  0  0  0  0  0  0  0
    6.4056   -1.2802    0.0000 C   0  0  0  0  0  0  0  0  0  0  0  0
    7.1201   -0.8677    0.0000 C   0  0  0  0  0  0  0  0  0  0  0  0
    4.2622   -0.0427    0.0000 C   0  0  0  0  0  0  0  0  0  0  0  0
    4.9767    0.3698    0.0000 C   0  0  0  0  0  0  0  0  0  0  0  0
    2.1188    0.3698    0.0000 C   0  0  0  0  0  0  0  0  0  0  0  0
    2.8332   -0.0427    0.0000 C   0  0  0  0  0  0  0  0  0  0  0  0
    3.5477    0.3698    0.0000 C   0  0  0  0  0  0  0  0  0  0  0  0
    3.5477    1.1948    0.0000 C   0  0  0  0  0  0  0  0  0  0  0  0
    2.8332    1.6073    0.0000 C   0  0  0  0  0  0  0  0  0  0  0  0
    2.1188    1.1948    0.0000 C   0  0  0  0  0  0  0  0  0  0  0  0
    0.6898    1.1948    0.0000 C   0  0  0  0  0  0  0  0  0  0  0  0
   -0.0246    1.6073    0.0000 C   0  0  0  0  0  0  0  0  0  0  0  0
  1  2  1  0  0  0  0
  2  3  1  0  0  0  0
  4  3  1  0  0  0  0
  5  4  2  0  0  0  0
  6  5  1  0  0  0  0
  7  6  1  4  0  0  0
  7  8  2  0  0  0  0
  8  9  1  0  0  0  0
  9 10  3  0  0  0  0
  8 11  1  0  0  0  0
 11 12  2  0  0  0  0
 11 13  1  0  0  0  0
 13 14  1  0  0  0  0
 14 15  1  0  0  0  0
 15 16  1  0  0  0  0
 16 17  1  0  0  0  0
 17 18  1  0  0  0  0
 18 19  1  0  0  0  0
 15 20  1  0  0  0  0
 20 21  1  0  0  0  0
  7 22  1  0  0  0  0
 23 22  1  0  0  0  0
 24 23  2  0  0  0  0
 25 24  1  0  0  0  0
 26 25  2  0  0  0  0
 27 26  1  0  0  0  0
 22 27  2  0  0  0  0
 28  6  2  0  0  0  0
 29 28  1  0  0  0  0
  3 29  2  0  0  0  0
M  END
> <RowID>
1284

> <Original_SMILES>
COC1C=CC(=CC=1)C(=C(C#N)C(=O)OCC(CCCC)CC)C1C=CC=CC=1

> <Canonical_QSARr>
COC1C=CC(=CC=1)C(=C(C#N)C(=O)OCC(CCCC)CC)C1C=CC=CC=1

> <InChI_Code_QSARr>
InChI=1S/C25H29NO3/c1-4-6-10-19(5-2)18-29-25(27)23(17-26)24(20-11-8-7-9-12-20)21-13-15-22(28-3)16-14-21/h7-9,11-16,19H,4-6,10,18H2,1-3H3

> <InChI Key_QSARr>
WAJCJDLRJVDSSD-UHFFFAOYSA-N

> <Salt_Solvent>


> <Salt_Solvent_ID>
0

> <Number of connected components>
1

$$$$
Molecule_1285
  Mrv2316 01072400032D          

 17 18  0  0  0  0            999 V2000
    2.1434   -6.2360    0.0000 N   0  0  0  0  0  0  0  0  0  0  0  0
    2.1434   -5.4110    0.0000 C   0  0  0  0  0  0  0  0  0  0  0  0
    2.8579   -4.9985    0.0000 C   0  0  0  0  0  0  0  0  0  0  0  0
    2.8579   -4.1735    0.0000 C   0  0  0  0  0  0  0  0  0  0  0  0
    2.1434   -3.7610    0.0000 C   0  0  0  0  0  0  0  0  0  0  0  0
    2.1434   -2.9360    0.0000 C   0  0  0  0  0  0  0  0  0  0  0  0
    1.4289   -2.5235    0.0000 C   0  0  0  0  0  0  0  0  0  0  0  0
    1.4289   -1.6985    0.0000 C   0  0  0  0  0  0  0  0  0  0  0  0
    0.7145   -1.2860    0.0000 C   0  0  0  0  0  0  0  0  0  0  0  0
    0.7145   -0.4610    0.0000 Cl  0  0  0  0  0  0  0  0  0  0  0  0
   -0.0000   -1.6985    0.0000 C   0  0  0  0  0  0  0  0  0  0  0  0
   -0.7145   -1.2860    0.0000 N   0  0  0  0  0  0  0  0  0  0  0  0
   -0.0000   -2.5235    0.0000 C   0  0  0  0  0  0  0  0  0  0  0  0
    0.7145   -2.9360    0.0000 C   0  0  0  0  0  0  0  0  0  0  0  0
    1.4289   -4.1735    0.0000 C   0  0  0  0  0  0  0  0  0  0  0  0
    1.4289   -4.9985    0.0000 C   0  0  0  0  0  0  0  0  0  0  0  0
    0.7145   -5.4110    0.0000 Cl  0  0  0  0  0  0  0  0  0  0  0  0
  1  2  1  0  0  0  0
  3  2  1  0  0  0  0
  4  3  2  0  0  0  0
  5  4  1  0  0  0  0
  5  6  1  0  0  0  0
  6  7  1  0  0  0  0
  8  7  2  0  0  0  0
  9  8  1  0  0  0  0
  9 10  1  0  0  0  0
 11  9  2  0  0  0  0
 11 12  1  0  0  0  0
 13 11  1  0  0  0  0
 14 13  2  0  0  0  0
  7 14  1  0  0  0  0
 15  5  2  0  0  0  0
 16 15  1  0  0  0  0
  2 16  2  0  0  0  0
 16 17  1  0  0  0  0
M  END
> <RowID>
1285

> <Original_SMILES>
NC1C=CC(CC2=CC(Cl)=C(N)C=C2)=CC=1Cl

> <Canonical_QSARr>
NC1C=CC(CC2=CC(Cl)=C(N)C=C2)=CC=1Cl

> <InChI_Code_QSARr>
InChI=1S/C13H12Cl2N2/c14-10-6-8(1-3-12(10)16)5-9-2-4-13(17)11(15)7-9/h1-4,6-7H,5,16-17H2

> <InChI Key_QSARr>
IBOFVQJTBBUKMU-UHFFFAOYSA-N

> <Salt_Solvent>


> <Salt_Solvent_ID>
0

> <Number of connected components>
1

$$$$
Molecule_1286
  Mrv2316 01072400032D          

 12 12  0  0  0  0            999 V2000
   -0.7145    2.0625    0.0000 C   0  0  0  0  0  0  0  0  0  0  0  0
   -0.0000    2.4750    0.0000 C   0  0  0  0  0  0  0  0  0  0  0  0
    0.7145    2.0625    0.0000 C   0  0  0  0  0  0  0  0  0  0  0  0
    0.7145    1.2375    0.0000 C   0  0  0  0  0  0  0  0  0  0  0  0
   -0.0000    0.8250    0.0000 C   0  0  0  0  0  0  0  0  0  0  0  0
   -0.0000    0.0000    0.0000 C   0  0  0  0  0  0  0  0  0  0  0  0
    0.7145   -0.4125    0.0000 C   0  0  0  0  0  0  0  0  0  0  0  0
    1.4289    0.0000    0.0000 C   0  0  0  0  0  0  0  0  0  0  0  0
    1.4289    0.8250    0.0000 C   0  0  0  0  0  0  0  0  0  0  0  0
    1.4289    2.4750    0.0000 O   0  0  0  0  0  0  0  0  0  0  0  0
   -0.0000    3.3000    0.0000 N   0  0  0  0  0  0  0  0  0  0  0  0
   -0.7145    3.7125    0.0000 C   0  0  0  0  0  0  0  0  0  0  0  0
  1  2  1  0  0  0  0
  2  3  1  0  0  0  0
  3  4  1  0  0  0  0
  5  4  2  0  0  0  0
  6  5  1  0  0  0  0
  7  6  2  0  0  0  0
  8  7  1  0  0  0  0
  9  8  2  0  0  0  0
  4  9  1  0  0  0  0
  3 10  1  0  0  0  0
  2 11  1  0  0  0  0
 11 12  1  0  0  0  0
M  END
> <RowID>
1286

> <Original_SMILES>
Cl.CC(NC)C(O)C1C=CC=CC=1

> <Canonical_QSARr>
CC(NC)C(O)C1C=CC=CC=1

> <InChI_Code_QSARr>
InChI=1S/C10H15NO/c1-8(11-2)10(12)9-6-4-3-5-7-9/h3-8,10-12H,1-2H3

> <InChI Key_QSARr>
KWGRBVOPPLSCSI-UHFFFAOYSA-N

> <Salt_Solvent>
Cl

> <Salt_Solvent_ID>
170

> <Number of connected components>
2

$$$$
Molecule_1287
  Mrv2316 01072400032D          

 31 30  0  0  0  0            999 V2000
   -0.6039   -4.1250    0.0000 F   0  0  0  0  0  0  0  0  0  0  0  0
   -0.6039   -3.3000    0.0000 C   0  0  0  0  0  0  0  0  0  0  0  0
    0.2211   -3.3000    0.0000 F   0  0  0  0  0  0  0  0  0  0  0  0
   -1.4289   -3.3000    0.0000 F   0  0  0  0  0  0  0  0  0  0  0  0
   -0.6039   -2.4750    0.0000 C   0  0  0  0  0  0  0  0  0  0  0  0
    0.2211   -2.4750    0.0000 F   0  0  0  0  0  0  0  0  0  0  0  0
   -1.4289   -2.4750    0.0000 F   0  0  0  0  0  0  0  0  0  0  0  0
   -0.6039   -1.6500    0.0000 C   0  0  0  0  0  0  0  0  0  0  0  0
    0.2211   -1.6500    0.0000 F   0  0  0  0  0  0  0  0  0  0  0  0
   -1.4289   -1.6500    0.0000 F   0  0  0  0  0  0  0  0  0  0  0  0
   -0.6039   -0.8250    0.0000 N   0  0  0  0  0  0  0  0  0  0  0  0
   -1.3184   -0.4125    0.0000 C   0  0  0  0  0  0  0  0  0  0  0  0
   -0.9059    0.3020    0.0000 F   0  0  0  0  0  0  0  0  0  0  0  0
   -1.7309   -1.1270    0.0000 F   0  0  0  0  0  0  0  0  0  0  0  0
   -2.0329   -0.0000    0.0000 C   0  0  0  0  0  0  0  0  0  0  0  0
   -1.6204    0.7145    0.0000 F   0  0  0  0  0  0  0  0  0  0  0  0
   -2.4454   -0.7145    0.0000 F   0  0  0  0  0  0  0  0  0  0  0  0
   -2.7473    0.4125    0.0000 C   0  0  0  0  0  0  0  0  0  0  0  0
   -3.4618    0.8250    0.0000 F   0  0  0  0  0  0  0  0  0  0  0  0
   -2.3348    1.1270    0.0000 F   0  0  0  0  0  0  0  0  0  0  0  0
   -3.1598   -0.3020    0.0000 F   0  0  0  0  0  0  0  0  0  0  0  0
    0.1105   -0.4125    0.0000 C   0  0  0  0  0  0  0  0  0  0  0  0
    0.5230   -1.1270    0.0000 F   0  0  0  0  0  0  0  0  0  0  0  0
   -0.3020    0.3020    0.0000 F   0  0  0  0  0  0  0  0  0  0  0  0
    0.8250    0.0000    0.0000 C   0  0  0  0  0  0  0  0  0  0  0  0
    1.2375   -0.7145    0.0000 F   0  0  0  0  0  0  0  0  0  0  0  0
    0.4125    0.7145    0.0000 F   0  0  0  0  0  0  0  0  0  0  0  0
    1.5395    0.4125    0.0000 C   0  0  0  0  0  0  0  0  0  0  0  0
    1.9520   -0.3020    0.0000 F   0  0  0  0  0  0  0  0  0  0  0  0
    1.1270    1.1270    0.0000 F   0  0  0  0  0  0  0  0  0  0  0  0
    2.2540    0.8250    0.0000 F   0  0  0  0  0  0  0  0  0  0  0  0
  1  2  1  0  0  0  0
  2  3  1  0  0  0  0
  2  4  1  0  0  0  0
  2  5  1  0  0  0  0
  5  6  1  0  0  0  0
  5  7  1  0  0  0  0
  5  8  1  0  0  0  0
  8  9  1  0  0  0  0
  8 10  1  0  0  0  0
  8 11  1  0  0  0  0
 11 12  1  0  0  0  0
 12 13  1  0  0  0  0
 12 14  1  0  0  0  0
 12 15  1  0  0  0  0
 15 16  1  0  0  0  0
 15 17  1  0  0  0  0
 15 18  1  0  0  0  0
 18 19  1  0  0  0  0
 18 20  1  0  0  0  0
 18 21  1  0  0  0  0
 11 22  1  0  0  0  0
 22 23  1  0  0  0  0
 22 24  1  0  0  0  0
 22 25  1  0  0  0  0
 25 26  1  0  0  0  0
 25 27  1  0  0  0  0
 25 28  1  0  0  0  0
 28 29  1  0  0  0  0
 28 30  1  0  0  0  0
 28 31  1  0  0  0  0
M  END
> <RowID>
1287

> <Original_SMILES>
FC(F)(F)C(F)(F)C(F)(F)N(C(F)(F)C(F)(F)C(F)(F)F)C(F)(F)C(F)(F)C(F)(F)F

> <Canonical_QSARr>
FC(F)(F)C(F)(F)C(F)(F)N(C(F)(F)C(F)(F)C(F)(F)F)C(F)(F)C(F)(F)C(F)(F)F

> <InChI_Code_QSARr>
InChI=1S/C9F21N/c10-1(11,4(16,17)18)7(25,26)31(8(27,28)2(12,13)5(19,20)21)9(29,30)3(14,15)6(22,23)24

> <InChI Key_QSARr>
JAJLKEVKNDUJBG-UHFFFAOYSA-N

> <Salt_Solvent>


> <Salt_Solvent_ID>
0

> <Number of connected components>
1

$$$$
Molecule_1288
  Mrv2316 01072400032D          

  7  6  0  0  0  0            999 V2000
    2.0625    0.7145    0.0000 N   0  0  0  0  0  0  0  0  0  0  0  0
    1.2375    0.7145    0.0000 C   0  0  0  0  0  0  0  0  0  0  0  0
    0.8250    1.4289    0.0000 C   0  0  0  0  0  0  0  0  0  0  0  0
    1.2375    2.1434    0.0000 O   0  0  0  0  0  0  0  0  0  0  0  0
    0.8250   -0.0000    0.0000 C   0  0  0  0  0  0  0  0  0  0  0  0
    1.2375   -0.7145    0.0000 O   0  0  0  0  0  0  0  0  0  0  0  0
    0.0000   -0.0000    0.0000 O   0  0  0  0  0  0  0  0  0  0  0  0
  1  2  1  0  0  0  0
  2  3  1  0  0  0  0
  3  4  1  0  0  0  0
  2  5  1  0  0  0  0
  5  6  1  0  0  0  0
  5  7  2  0  0  0  0
M  END
> <RowID>
1288

> <Original_SMILES>
NC(CO)C(O)=O

> <Canonical_QSARr>
NC(CO)C(O)=O

> <InChI_Code_QSARr>
InChI=1S/C3H7NO3/c4-2(1-5)3(6)7/h2,5H,1,4H2,(H,6,7)

> <InChI Key_QSARr>
MTCFGRXMJLQNBG-UHFFFAOYSA-N

> <Salt_Solvent>


> <Salt_Solvent_ID>
0

> <Number of connected components>
1

$$$$
Molecule_1289
  Mrv2316 01072400032D          

 11 12  0  0  0  0            999 V2000
    0.8838   -2.1500    0.0000 O   0  0  0  0  0  0  0  0  0  0  0  0
    1.1387   -1.3654    0.0000 C   0  0  0  0  0  0  0  0  0  0  0  0
    0.6538   -0.6979    0.0000 N   0  0  0  0  0  0  0  0  0  0  0  0
    1.1387   -0.0305    0.0000 C   0  0  0  0  0  0  0  0  0  0  0  0
    0.8838    0.7541    0.0000 O   0  0  0  0  0  0  0  0  0  0  0  0
    1.9233   -0.2854    0.0000 C   0  0  0  0  0  0  0  0  0  0  0  0
    2.6378    0.1271    0.0000 C   0  0  0  0  0  0  0  0  0  0  0  0
    3.3523   -0.2854    0.0000 C   0  0  0  0  0  0  0  0  0  0  0  0
    3.3523   -1.1104    0.0000 C   0  0  0  0  0  0  0  0  0  0  0  0
    2.6378   -1.5229    0.0000 C   0  0  0  0  0  0  0  0  0  0  0  0
    1.9233   -1.1104    0.0000 C   0  0  0  0  0  0  0  0  0  0  0  0
  1  2  2  0  0  0  0
  3  2  1  0  0  0  0
  4  3  1  0  0  0  0
  4  5  2  0  0  0  0
  6  4  1  0  0  0  0
  6  7  1  0  0  0  0
  7  8  2  0  0  0  0
  8  9  1  0  0  0  0
  9 10  2  0  0  0  0
 10 11  1  0  0  0  0
  2 11  1  0  0  0  0
 11  6  2  0  0  0  0
M  END
> <RowID>
1289

> <Original_SMILES>
O=C1NC(=O)C2C=CC=CC1=2

> <Canonical_QSARr>
O=C1NC(=O)C2C=CC=CC1=2

> <InChI_Code_QSARr>
InChI=1S/C8H5NO2/c10-7-5-3-1-2-4-6(5)8(11)9-7/h1-4H,(H,9,10,11)

> <InChI Key_QSARr>
XKJCHHZQLQNZHY-UHFFFAOYSA-N

> <Salt_Solvent>


> <Salt_Solvent_ID>
0

> <Number of connected components>
1

$$$$
Molecule_1290
  Mrv2316 01072400032D          

 26 28  0  0  0  0            999 V2000
   -2.4881    0.4559    0.0000 C   0  0  0  0  0  0  0  0  0  0  0  0
   -1.7736    0.8684    0.0000 C   0  0  0  0  0  0  0  0  0  0  0  0
   -1.0591    1.2809    0.0000 C   0  0  0  0  0  0  0  0  0  0  0  0
   -2.1861    1.5829    0.0000 C   0  0  0  0  0  0  0  0  0  0  0  0
   -3.0111    1.5829    0.0000 C   0  0  0  0  0  0  0  0  0  0  0  0
   -1.3611    0.1539    0.0000 C   0  0  0  0  0  0  0  0  0  0  0  0
   -1.7736   -0.5605    0.0000 C   0  0  0  0  0  0  0  0  0  0  0  0
   -1.3611   -1.2750    0.0000 C   0  0  0  0  0  0  0  0  0  0  0  0
   -1.7736   -1.9895    0.0000 C   0  0  0  0  0  0  0  0  0  0  0  0
   -1.0591   -2.4020    0.0000 C   0  0  0  0  0  0  0  0  0  0  0  0
   -2.4881   -1.5770    0.0000 C   0  0  0  0  0  0  0  0  0  0  0  0
   -2.1861   -2.7039    0.0000 C   0  0  0  0  0  0  0  0  0  0  0  0
   -3.0111   -2.7039    0.0000 C   0  0  0  0  0  0  0  0  0  0  0  0
   -0.5361   -1.2750    0.0000 C   0  0  0  0  0  0  0  0  0  0  0  0
   -0.1236   -1.9895    0.0000 O   0  0  0  0  0  0  0  0  0  0  0  0
   -0.1236   -0.5605    0.0000 C   0  0  0  0  0  0  0  0  0  0  0  0
    0.7014   -0.5605    0.0000 N   0  0  0  0  0  0  0  0  0  0  0  0
    1.1863    0.1069    0.0000 N   0  0  0  0  0  0  0  0  0  0  0  0
    1.9709   -0.1480    0.0000 C   0  0  0  0  0  0  0  0  0  0  0  0
    2.6854    0.2645    0.0000 C   0  0  0  0  0  0  0  0  0  0  0  0
    3.3999   -0.1480    0.0000 C   0  0  0  0  0  0  0  0  0  0  0  0
    3.3999   -0.9730    0.0000 C   0  0  0  0  0  0  0  0  0  0  0  0
    2.6854   -1.3855    0.0000 C   0  0  0  0  0  0  0  0  0  0  0  0
    1.9709   -0.9730    0.0000 C   0  0  0  0  0  0  0  0  0  0  0  0
    1.1863   -1.2280    0.0000 N   0  0  0  0  0  0  0  0  0  0  0  0
   -0.5361    0.1539    0.0000 C   0  0  0  0  0  0  0  0  0  0  0  0
  1  2  1  0  0  0  0
  2  3  1  0  0  0  0
  2  4  1  0  0  0  0
  4  5  1  0  0  0  0
  2  6  1  0  0  0  0
  7  6  1  0  0  0  0
  8  7  2  0  0  0  0
  8  9  1  0  0  0  0
  9 10  1  0  0  0  0
  9 11  1  0  0  0  0
  9 12  1  0  0  0  0
 12 13  1  0  0  0  0
 14  8  1  0  0  0  0
 14 15  1  0  0  0  0
 16 14  2  0  0  0  0
 16 17  1  0  0  0  0
 18 17  1  0  0  0  0
 19 18  2  0  0  0  0
 19 20  1  0  0  0  0
 20 21  2  0  0  0  0
 21 22  1  0  0  0  0
 22 23  2  0  0  0  0
 23 24  1  0  0  0  0
 24 19  1  0  0  0  0
 25 24  2  0  0  0  0
 17 25  1  0  0  0  0
 26 16  1  0  0  0  0
  6 26  2  0  0  0  0
M  END
> <RowID>
1290

> <Original_SMILES>
CC(C)(CC)C1C=C(C(O)=C(C=1)N1N=C2C=CC=CC2=N1)C(C)(C)CC

> <Canonical_QSARr>
CC(C)(CC)C1C=C(C(O)=C(C=1)N1N=C2C=CC=CC2=N1)C(C)(C)CC

> <InChI_Code_QSARr>
InChI=1S/C22H29N3O/c1-7-21(3,4)15-13-16(22(5,6)8-2)20(26)19(14-15)25-23-17-11-9-10-12-18(17)24-25/h9-14,26H,7-8H2,1-6H3

> <InChI Key_QSARr>
ZMWRRFHBXARRRT-UHFFFAOYSA-N

> <Salt_Solvent>


> <Salt_Solvent_ID>
0

> <Number of connected components>
1

$$$$
Molecule_1291
  Mrv2316 01072400032D          

  9  9  0  0  0  0            999 V2000
    2.1434   -0.4125    0.0000 N   0  0  0  0  0  0  0  0  0  0  0  0
    1.4289   -0.0000    0.0000 C   0  0  0  0  0  0  0  0  0  0  0  0
    1.4289    0.8250    0.0000 N   0  0  0  0  0  0  0  0  0  0  0  0
    0.7145    1.2375    0.0000 C   0  0  0  0  0  0  0  0  0  0  0  0
    0.7145    2.0625    0.0000 N   0  0  0  0  0  0  0  0  0  0  0  0
   -0.0000    0.8250    0.0000 N   0  0  0  0  0  0  0  0  0  0  0  0
   -0.0000    0.0000    0.0000 C   0  0  0  0  0  0  0  0  0  0  0  0
   -0.7145   -0.4125    0.0000 O   0  0  0  0  0  0  0  0  0  0  0  0
    0.7145   -0.4125    0.0000 C   0  0  0  0  0  0  0  0  0  0  0  0
  1  2  2  0  0  0  0
  3  2  1  0  0  0  0
  4  3  1  0  0  0  0
  4  5  1  0  0  0  0
  6  4  2  0  0  0  0
  7  6  1  0  0  0  0
  7  8  2  0  0  0  0
  9  7  1  0  0  0  0
  2  9  1  0  0  0  0
M  END
> <RowID>
1291

> <Original_SMILES>
NC1NC(N)=CC(=O)N=1

> <Canonical_QSARr>
NC1NC(=N)CC(=O)N=1

> <InChI_Code_QSARr>
InChI=1S/C4H6N4O/c5-2-1-3(9)8-4(6)7-2/h1H2,(H4,5,6,7,8,9)

> <InChI Key_QSARr>
CHSXGZHOMKSJNB-UHFFFAOYSA-N

> <Salt_Solvent>


> <Salt_Solvent_ID>
0

> <Number of connected components>
1

$$$$
Molecule_1292
  Mrv2316 01072400032D          

 12 12  0  0  0  0            999 V2000
   -0.7145    2.0625    0.0000 C   0  0  0  0  0  0  0  0  0  0  0  0
   -0.0000    2.4750    0.0000 C   0  0  0  0  0  0  0  0  0  0  0  0
    0.7145    2.0625    0.0000 C   0  0  0  0  0  0  0  0  0  0  0  0
    0.7145    1.2375    0.0000 C   0  0  0  0  0  0  0  0  0  0  0  0
   -0.0000    0.8250    0.0000 C   0  0  0  0  0  0  0  0  0  0  0  0
   -0.0000    0.0000    0.0000 C   0  0  0  0  0  0  0  0  0  0  0  0
    0.7145   -0.4125    0.0000 C   0  0  0  0  0  0  0  0  0  0  0  0
    1.4289    0.0000    0.0000 C   0  0  0  0  0  0  0  0  0  0  0  0
    1.4289    0.8250    0.0000 C   0  0  0  0  0  0  0  0  0  0  0  0
    1.4289    2.4750    0.0000 O   0  0  0  0  0  0  0  0  0  0  0  0
   -0.0000    3.3000    0.0000 N   0  0  0  0  0  0  0  0  0  0  0  0
   -0.7145    3.7125    0.0000 C   0  0  0  0  0  0  0  0  0  0  0  0
  1  2  1  0  0  0  0
  2  3  1  0  0  0  0
  3  4  1  0  0  0  0
  5  4  2  0  0  0  0
  6  5  1  0  0  0  0
  7  6  2  0  0  0  0
  8  7  1  0  0  0  0
  9  8  2  0  0  0  0
  4  9  1  0  0  0  0
  3 10  1  0  0  0  0
  2 11  1  0  0  0  0
 11 12  1  0  0  0  0
M  END
> <RowID>
1292

> <Original_SMILES>
Cl.CC(NC)C(O)C1C=CC=CC=1

> <Canonical_QSARr>
CC(NC)C(O)C1C=CC=CC=1

> <InChI_Code_QSARr>
InChI=1S/C10H15NO/c1-8(11-2)10(12)9-6-4-3-5-7-9/h3-8,10-12H,1-2H3

> <InChI Key_QSARr>
KWGRBVOPPLSCSI-UHFFFAOYSA-N

> <Salt_Solvent>
Cl

> <Salt_Solvent_ID>
170

> <Number of connected components>
2

$$$$
Molecule_1293
  Mrv2316 01072400032D          

 18 19  0  0  0  0            999 V2000
    4.4059   -4.3313    0.0000 N   0  0  0  0  0  0  0  0  0  0  0  0
    3.6914   -3.9188    0.0000 C   0  0  0  0  0  0  0  0  0  0  0  0
    3.6914   -3.0938    0.0000 C   0  0  0  0  0  0  0  0  0  0  0  0
    2.9770   -2.6813    0.0000 C   0  0  0  0  0  0  0  0  0  0  0  0
    2.9770   -1.8563    0.0000 S   0  0  0  0  0  0  0  0  0  0  0  0
    2.9770   -1.0313    0.0000 O   0  0  0  0  0  0  0  0  0  0  0  0
    2.1520   -1.8563    0.0000 O   0  0  0  0  0  0  0  0  0  0  0  0
    3.8020   -1.8563    0.0000 O   0  0  0  0  0  0  0  0  0  0  0  0
    2.2625   -3.0938    0.0000 C   0  0  0  0  0  0  0  0  0  0  0  0
    1.5480   -2.6813    0.0000 N   0  0  0  0  0  0  0  0  0  0  0  0
    0.8335   -3.0938    0.0000 C   0  0  0  0  0  0  0  0  0  0  0  0
    0.1191   -2.6813    0.0000 C   0  0  0  0  0  0  0  0  0  0  0  0
   -0.5954   -3.0938    0.0000 C   0  0  0  0  0  0  0  0  0  0  0  0
   -0.5954   -3.9188    0.0000 C   0  0  0  0  0  0  0  0  0  0  0  0
    0.1191   -4.3313    0.0000 C   0  0  0  0  0  0  0  0  0  0  0  0
    0.8335   -3.9188    0.0000 C   0  0  0  0  0  0  0  0  0  0  0  0
    2.2625   -3.9188    0.0000 C   0  0  0  0  0  0  0  0  0  0  0  0
    2.9770   -4.3313    0.0000 C   0  0  0  0  0  0  0  0  0  0  0  0
  1  2  1  0  0  0  0
  3  2  2  0  0  0  0
  4  3  1  0  0  0  0
  4  5  1  0  0  0  0
  5  6  1  0  0  0  0
  5  7  2  0  0  0  0
  5  8  2  0  0  0  0
  9  4  2  0  0  0  0
  9 10  1  0  0  0  0
 10 11  1  0  0  0  0
 12 11  1  0  0  0  0
 13 12  2  0  0  0  0
 14 13  1  0  0  0  0
 15 14  2  0  0  0  0
 16 15  1  0  0  0  0
 11 16  2  0  0  0  0
 17  9  1  0  0  0  0
 18 17  2  0  0  0  0
  2 18  1  0  0  0  0
M  END
> <RowID>
1293

> <Original_SMILES>
NC1=CC(=C(C=C1)NC1C=CC=CC=1)S(O)(=O)=O

> <Canonical_QSARr>
NC1=CC(=C(C=C1)NC1C=CC=CC=1)S(O)(=O)=O

> <InChI_Code_QSARr>
InChI=1S/C12H12N2O3S/c13-9-6-7-11(12(8-9)18(15,16)17)14-10-4-2-1-3-5-10/h1-8,14H,13H2,(H,15,16,17)

> <InChI Key_QSARr>
HYLOSPCJTPLXSF-UHFFFAOYSA-N

> <Salt_Solvent>


> <Salt_Solvent_ID>
0

> <Number of connected components>
1

$$$$
Molecule_1294
  Mrv2316 01072400032D          

 26 25  0  0  0  0            999 V2000
   10.9475    7.1452    0.0000 C   0  0  0  0  0  0  0  0  0  0  0  0
   11.6619    7.5577    0.0000 C   0  0  0  0  0  0  0  0  0  0  0  0
   11.6619    8.3827    0.0000 C   0  0  0  0  0  0  0  0  0  0  0  0
   12.3764    7.1452    0.0000 C   0  0  0  0  0  0  0  0  0  0  0  0
   12.3764    6.3202    0.0000 O   0  0  0  0  0  0  0  0  0  0  0  0
   13.0909    7.5577    0.0000 O   0  0  0  0  0  0  0  0  0  0  0  0
   13.8054    7.1452    0.0000 C   0  0  0  0  0  0  0  0  0  0  0  0
   14.5198    7.5577    0.0000 C   0  0  0  0  0  0  0  0  0  0  0  0
   15.2343    7.1452    0.0000 C   0  0  0  0  0  0  0  0  0  0  0  0
   15.9488    7.5577    0.0000 C   0  0  0  0  0  0  0  0  0  0  0  0
   16.6632    7.1452    0.0000 C   0  0  0  0  0  0  0  0  0  0  0  0
   17.3777    7.5577    0.0000 C   0  0  0  0  0  0  0  0  0  0  0  0
   18.0922    7.1452    0.0000 C   0  0  0  0  0  0  0  0  0  0  0  0
   18.8067    7.5577    0.0000 C   0  0  0  0  0  0  0  0  0  0  0  0
   19.5211    7.1452    0.0000 C   0  0  0  0  0  0  0  0  0  0  0  0
   20.2356    7.5577    0.0000 C   0  0  0  0  0  0  0  0  0  0  0  0
   20.9501    7.1452    0.0000 C   0  0  0  0  0  0  0  0  0  0  0  0
   21.6645    7.5577    0.0000 C   0  0  0  0  0  0  0  0  0  0  0  0
   22.3790    7.1452    0.0000 C   0  0  0  0  0  0  0  0  0  0  0  0
   23.0935    7.5577    0.0000 C   0  0  0  0  0  0  0  0  0  0  0  0
   23.8079    7.1452    0.0000 C   0  0  0  0  0  0  0  0  0  0  0  0
   24.5224    7.5577    0.0000 C   0  0  0  0  0  0  0  0  0  0  0  0
   25.2369    7.1452    0.0000 C   0  0  0  0  0  0  0  0  0  0  0  0
   25.9514    7.5577    0.0000 C   0  0  0  0  0  0  0  0  0  0  0  0
   26.6658    7.1452    0.0000 C   0  0  0  0  0  0  0  0  0  0  0  0
   27.3803    7.5577    0.0000 C   0  0  0  0  0  0  0  0  0  0  0  0
  1  2  1  0  0  0  0
  2  3  2  0  0  0  0
  2  4  1  0  0  0  0
  4  5  2  0  0  0  0
  4  6  1  0  0  0  0
  6  7  1  0  0  0  0
  7  8  1  0  0  0  0
  8  9  1  0  0  0  0
  9 10  1  0  0  0  0
 10 11  1  0  0  0  0
 11 12  1  0  0  0  0
 12 13  1  0  0  0  0
 13 14  1  0  0  0  0
 14 15  1  0  0  0  0
 15 16  1  0  0  0  0
 16 17  1  0  0  0  0
 17 18  1  0  0  0  0
 18 19  1  0  0  0  0
 19 20  1  0  0  0  0
 20 21  1  0  0  0  0
 21 22  1  0  0  0  0
 22 23  1  0  0  0  0
 23 24  1  0  0  0  0
 24 25  1  0  0  0  0
 25 26  1  0  0  0  0
M  END
> <RowID>
1294

> <Original_SMILES>
CC(=C)C(=O)OCCCCCCCCCCCCCCCCCCCC

> <Canonical_QSARr>
CC(=C)C(=O)OCCCCCCCCCCCCCCCCCCCC

> <InChI_Code_QSARr>
InChI=1S/C24H46O2/c1-4-5-6-7-8-9-10-11-12-13-14-15-16-17-18-19-20-21-22-26-24(25)23(2)3/h2,4-22H2,1,3H3

> <InChI Key_QSARr>
CFBXDFZIDLWOSO-UHFFFAOYSA-N

> <Salt_Solvent>


> <Salt_Solvent_ID>
0

> <Number of connected components>
1

$$$$
Molecule_1295
  Mrv2316 01072400032D          

 19 20  0  0  0  0            999 V2000
   -0.7145    0.4125    0.0000 O   0  0  0  0  0  0  0  0  0  0  0  0
   -0.0000   -0.0000    0.0000 S   0  0  0  0  0  0  0  0  0  0  0  0
   -0.4125   -0.7145    0.0000 O   0  0  0  0  0  0  0  0  0  0  0  0
    0.4125    0.7145    0.0000 O   0  0  0  0  0  0  0  0  0  0  0  0
    0.7145   -0.4125    0.0000 C   0  0  0  0  0  0  0  0  0  0  0  0
    1.4289    0.0000    0.0000 C   0  0  0  0  0  0  0  0  0  0  0  0
    2.1434   -0.4125    0.0000 C   0  0  0  0  0  0  0  0  0  0  0  0
    2.8579    0.0000    0.0000 C   0  0  0  0  0  0  0  0  0  0  0  0
    3.5724   -0.4125    0.0000 C   0  0  0  0  0  0  0  0  0  0  0  0
    3.5724   -1.2375    0.0000 C   0  0  0  0  0  0  0  0  0  0  0  0
    2.8579   -1.6500    0.0000 C   0  0  0  0  0  0  0  0  0  0  0  0
    2.8579   -2.4750    0.0000 O   0  0  0  0  0  0  0  0  0  0  0  0
    2.1434   -1.2375    0.0000 C   0  0  0  0  0  0  0  0  0  0  0  0
    1.4289   -1.6500    0.0000 C   0  0  0  0  0  0  0  0  0  0  0  0
    0.7145   -1.2375    0.0000 C   0  0  0  0  0  0  0  0  0  0  0  0
    4.2868   -0.0000    0.0000 S   0  0  0  0  0  0  0  0  0  0  0  0
    5.0013    0.4125    0.0000 O   0  0  0  0  0  0  0  0  0  0  0  0
    4.6993   -0.7145    0.0000 O   0  0  0  0  0  0  0  0  0  0  0  0
    3.8743    0.7145    0.0000 O   0  0  0  0  0  0  0  0  0  0  0  0
  1  2  1  0  0  0  0
  2  3  2  0  0  0  0
  2  4  2  0  0  0  0
  2  5  1  0  0  0  0
  6  5  2  0  0  0  0
  7  6  1  0  0  0  0
  7  8  1  0  0  0  0
  8  9  2  0  0  0  0
  9 10  1  0  0  0  0
 10 11  2  0  0  0  0
 11 12  1  0  0  0  0
 11 13  1  0  0  0  0
 13  7  2  0  0  0  0
 14 13  1  0  0  0  0
 15 14  2  0  0  0  0
  5 15  1  0  0  0  0
  9 16  1  0  0  0  0
 16 17  1  0  0  0  0
 16 18  2  0  0  0  0
 16 19  2  0  0  0  0
M  END
> <RowID>
1295

> <Original_SMILES>
[Na+].[Na+].[O-]S(=O)(=O)C1C=C2C=C(C=CC2=C(O)C=1)S([O-])(=O)=O

> <Canonical_QSARr>
OC1=CC(=CC2C=C(C=CC1=2)S(O)(=O)=O)S(O)(=O)=O

> <InChI_Code_QSARr>
InChI=1S/C10H8O7S2/c11-10-5-8(19(15,16)17)4-6-3-7(18(12,13)14)1-2-9(6)10/h1-5,11H,(H,12,13,14)(H,15,16,17)

> <InChI Key_QSARr>
TZBROGJRQUABOK-UHFFFAOYSA-N

> <Salt_Solvent>
[Na+]

> <Salt_Solvent_ID>
110

> <Number of connected components>
3

$$$$
Molecule_1296
  Mrv2316 01072400032D          

 33 32  0  0  0  0            999 V2000
   16.6105   10.4151    0.0000 C   0  0  0  0  0  0  0  0  0  0  0  0
   17.3250   10.0026    0.0000 C   0  0  0  0  0  0  0  0  0  0  0  0
   18.0395   10.4151    0.0000 C   0  0  0  0  0  0  0  0  0  0  0  0
   18.7539   10.0026    0.0000 C   0  0  0  0  0  0  0  0  0  0  0  0
   19.4684   10.4151    0.0000 C   0  0  0  0  0  0  0  0  0  0  0  0
   20.1829   10.0026    0.0000 C   0  0  0  0  0  0  0  0  0  0  0  0
   20.8974   10.4151    0.0000 C   0  0  0  0  0  0  0  0  0  0  0  0
   21.6118   10.0026    0.0000 C   0  0  0  0  0  0  0  0  0  0  0  0
   22.3263   10.4151    0.0000 C   0  0  0  0  0  0  0  0  0  0  0  0
   23.0408   10.0026    0.0000 C   0  0  0  0  0  0  0  0  0  0  0  0
   23.7552   10.4151    0.0000 C   0  0  0  0  0  0  0  0  0  0  0  0
   24.4697   10.0026    0.0000 C   0  0  0  0  0  0  0  0  0  0  0  0
   25.1842   10.4151    0.0000 C   0  0  0  0  0  0  0  0  0  0  0  0
   25.8987   10.0026    0.0000 C   0  0  0  0  0  0  0  0  0  0  0  0
   26.6131   10.4151    0.0000 C   0  0  0  0  0  0  0  0  0  0  0  0
   27.3276   10.0026    0.0000 C   0  0  0  0  0  0  0  0  0  0  0  0
   28.0421   10.4151    0.0000 C   0  0  0  0  0  0  0  0  0  0  0  0
   28.0421   11.2401    0.0000 C   0  0  0  0  0  0  0  0  0  0  0  0
   28.7565   11.6526    0.0000 O   0  0  0  0  0  0  0  0  0  0  0  0
   28.7565   10.0026    0.0000 C   0  0  0  0  0  0  0  0  0  0  0  0
   29.4710   10.4151    0.0000 C   0  0  0  0  0  0  0  0  0  0  0  0
   30.1855   10.0026    0.0000 C   0  0  0  0  0  0  0  0  0  0  0  0
   30.8999   10.4151    0.0000 C   0  0  0  0  0  0  0  0  0  0  0  0
   31.6144   10.0026    0.0000 C   0  0  0  0  0  0  0  0  0  0  0  0
   32.3289   10.4151    0.0000 C   0  0  0  0  0  0  0  0  0  0  0  0
   33.0434   10.0026    0.0000 C   0  0  0  0  0  0  0  0  0  0  0  0
   33.7578   10.4151    0.0000 C   0  0  0  0  0  0  0  0  0  0  0  0
   34.4723   10.0026    0.0000 C   0  0  0  0  0  0  0  0  0  0  0  0
   35.1868   10.4151    0.0000 C   0  0  0  0  0  0  0  0  0  0  0  0
   35.9012   10.0026    0.0000 C   0  0  0  0  0  0  0  0  0  0  0  0
   36.6157   10.4151    0.0000 C   0  0  0  0  0  0  0  0  0  0  0  0
   37.3302   10.0026    0.0000 C   0  0  0  0  0  0  0  0  0  0  0  0
   38.0447   10.4151    0.0000 C   0  0  0  0  0  0  0  0  0  0  0  0
  1  2  1  0  0  0  0
  2  3  1  0  0  0  0
  3  4  1  0  0  0  0
  4  5  1  0  0  0  0
  5  6  1  0  0  0  0
  6  7  1  0  0  0  0
  7  8  1  0  0  0  0
  8  9  1  0  0  0  0
  9 10  1  0  0  0  0
 10 11  1  0  0  0  0
 11 12  1  0  0  0  0
 12 13  1  0  0  0  0
 13 14  1  0  0  0  0
 14 15  1  0  0  0  0
 15 16  1  0  0  0  0
 16 17  1  0  0  0  0
 17 18  1  0  0  0  0
 18 19  1  0  0  0  0
 17 20  1  0  0  0  0
 20 21  1  0  0  0  0
 21 22  1  0  0  0  0
 22 23  1  0  0  0  0
 23 24  1  0  0  0  0
 24 25  1  0  0  0  0
 25 26  1  0  0  0  0
 26 27  1  0  0  0  0
 27 28  1  0  0  0  0
 28 29  1  0  0  0  0
 29 30  1  0  0  0  0
 30 31  1  0  0  0  0
 31 32  1  0  0  0  0
 32 33  1  0  0  0  0
M  END
> <RowID>
1296

> <Original_SMILES>
CCCCCCCCCCCCCCCCC(CO)CCCCCCCCCCCCCC

> <Canonical_QSARr>
CCCCCCCCCCCCCCCCC(CO)CCCCCCCCCCCCCC

> <InChI_Code_QSARr>
InChI=1S/C32H66O/c1-3-5-7-9-11-13-15-17-18-20-22-24-26-28-30-32(31-33)29-27-25-23-21-19-16-14-12-10-8-6-4-2/h32-33H,3-31H2,1-2H3

> <InChI Key_QSARr>
RTXVDAJGIYOHFY-UHFFFAOYSA-N

> <Salt_Solvent>


> <Salt_Solvent_ID>
0

> <Number of connected components>
1

$$$$
Molecule_1297
  Mrv2316 01072400032D          

 10  9  0  0  0  0            999 V2000
    2.2836   -2.9684    0.0000 N   0  0  0  0  0  0  0  0  0  0  0  0
    2.9980   -2.5559    0.0000 C   0  0  0  0  0  0  0  0  0  0  0  0
    3.7125   -2.1434    0.0000 C   0  0  0  0  0  0  0  0  0  0  0  0
    4.4270   -2.5559    0.0000 C   0  0  0  0  0  0  0  0  0  0  0  0
    5.1414   -2.1434    0.0000 C   0  0  0  0  0  0  0  0  0  0  0  0
    5.8559   -2.5559    0.0000 C   0  0  0  0  0  0  0  0  0  0  0  0
    6.5704   -2.1434    0.0000 C   0  0  0  0  0  0  0  0  0  0  0  0
    7.2849   -2.5559    0.0000 C   0  0  0  0  0  0  0  0  0  0  0  0
    7.9993   -2.1434    0.0000 C   0  0  0  0  0  0  0  0  0  0  0  0
    8.7138   -1.7309    0.0000 N   0  0  0  0  0  0  0  0  0  0  0  0
  1  2  3  0  0  0  0
  2  3  1  0  0  0  0
  3  4  1  0  0  0  0
  4  5  1  0  0  0  0
  5  6  1  0  0  0  0
  6  7  1  0  0  0  0
  7  8  1  0  0  0  0
  8  9  1  0  0  0  0
  9 10  3  0  0  0  0
M  END
> <RowID>
1297

> <Original_SMILES>
N#CCCCCCCC#N

> <Canonical_QSARr>
N#CCCCCCCC#N

> <InChI_Code_QSARr>
InChI=1S/C8H12N2/c9-7-5-3-1-2-4-6-8-10/h1-6H2

> <InChI Key_QSARr>
BTNXBLUGMAMSSH-UHFFFAOYSA-N

> <Salt_Solvent>


> <Salt_Solvent_ID>
0

> <Number of connected components>
1

$$$$
Molecule_1298
  Mrv2316 01072400032D          

 12 11  0  0  0  0            999 V2000
    2.9980    2.5559    0.0000 C   0  0  0  0  0  0  0  0  0  0  0  0
    3.7125    2.1434    0.0000 C   0  0  0  0  0  0  0  0  0  0  0  0
    4.4270    2.5559    0.0000 C   0  0  0  0  0  0  0  0  0  0  0  0
    5.1414    2.1434    0.0000 C   0  0  0  0  0  0  0  0  0  0  0  0
    5.8559    2.5559    0.0000 C   0  0  0  0  0  0  0  0  0  0  0  0
    6.5704    2.1434    0.0000 C   0  0  0  0  0  0  0  0  0  0  0  0
    7.2849    2.5559    0.0000 O   0  0  0  0  0  0  0  0  0  0  0  0
    7.9993    2.1434    0.0000 N   0  3  0  0  0  0  0  0  0  0  0  0
    8.7138    2.5559    0.0000 O   0  5  0  0  0  0  0  0  0  0  0  0
    7.9993    1.3184    0.0000 O   0  0  0  0  0  0  0  0  0  0  0  0
    5.8559    3.3809    0.0000 C   0  0  0  0  0  0  0  0  0  0  0  0
    6.5704    3.7934    0.0000 C   0  0  0  0  0  0  0  0  0  0  0  0
  1  2  1  0  0  0  0
  2  3  1  0  0  0  0
  3  4  1  0  0  0  0
  4  5  1  0  0  0  0
  5  6  1  0  0  0  0
  6  7  1  0  0  0  0
  7  8  1  0  0  0  0
  8  9  1  0  0  0  0
  8 10  2  0  0  0  0
  5 11  1  0  0  0  0
 11 12  1  0  0  0  0
M  CHG  2   8   1   9  -1
M  END
> <RowID>
1298

> <Original_SMILES>
CCCCC(CO[N+]([O-])=O)CC

> <Canonical_QSARr>
CCCCC(CO[N+]([O-])=O)CC

> <InChI_Code_QSARr>
InChI=1S/C8H17NO3/c1-3-5-6-8(4-2)7-12-9(10)11/h8H,3-7H2,1-2H3

> <InChI Key_QSARr>
NKRVGWFEFKCZAP-UHFFFAOYSA-N

> <Salt_Solvent>


> <Salt_Solvent_ID>
0

> <Number of connected components>
1

$$$$
Molecule_1299
  Mrv2316 01072400032D          

 10 10  0  0  0  0            999 V2000
    2.1434   -0.4125    0.0000 N   0  0  0  0  0  0  0  0  0  0  0  0
    1.4289   -0.0000    0.0000 C   0  0  0  0  0  0  0  0  0  0  0  0
    1.4289    0.8250    0.0000 C   0  0  0  0  0  0  0  0  0  0  0  0
    0.7145    1.2375    0.0000 C   0  0  0  0  0  0  0  0  0  0  0  0
    0.7145    2.0625    0.0000 Cl  0  0  0  0  0  0  0  0  0  0  0  0
   -0.0000    0.8250    0.0000 C   0  0  0  0  0  0  0  0  0  0  0  0
   -0.7145    1.2375    0.0000 Cl  0  0  0  0  0  0  0  0  0  0  0  0
   -0.0000    0.0000    0.0000 C   0  0  0  0  0  0  0  0  0  0  0  0
    0.7145   -0.4125    0.0000 C   0  0  0  0  0  0  0  0  0  0  0  0
    0.7145   -1.2375    0.0000 Cl  0  0  0  0  0  0  0  0  0  0  0  0
  1  2  1  0  0  0  0
  3  2  2  0  0  0  0
  4  3  1  0  0  0  0
  4  5  1  0  0  0  0
  6  4  2  0  0  0  0
  6  7  1  0  0  0  0
  8  6  1  0  0  0  0
  9  8  2  0  0  0  0
  2  9  1  0  0  0  0
  9 10  1  0  0  0  0
M  END
> <RowID>
1299

> <Original_SMILES>
NC1=CC(Cl)=C(Cl)C=C1Cl

> <Canonical_QSARr>
NC1=CC(Cl)=C(Cl)C=C1Cl

> <InChI_Code_QSARr>
InChI=1S/C6H4Cl3N/c7-3-1-5(9)6(10)2-4(3)8/h1-2H,10H2

> <InChI Key_QSARr>
GUMCAKKKNKYFEB-UHFFFAOYSA-N

> <Salt_Solvent>


> <Salt_Solvent_ID>
0

> <Number of connected components>
1

$$$$
Molecule_1302
  Mrv2316 01072400032D          

  4  3  0  0  0  0            999 V2000
    2.0625   -0.7145    0.0000 N   0  0  0  0  0  0  0  0  0  0  0  0
    1.2375   -0.7145    0.0000 C   0  0  0  0  0  0  0  0  0  0  0  0
    0.8250   -0.0000    0.0000 C   0  0  0  0  0  0  0  0  0  0  0  0
    0.0000   -0.0000    0.0000 O   0  0  0  0  0  0  0  0  0  0  0  0
  1  2  1  0  0  0  0
  2  3  1  0  0  0  0
  3  4  1  0  0  0  0
M  END
> <RowID>
1302

> <Original_SMILES>
NCCO.[O-][N+](O)=O

> <Canonical_QSARr>
NCCO

> <InChI_Code_QSARr>
InChI=1S/C2H7NO/c3-1-2-4/h4H,1-3H2

> <InChI Key_QSARr>
HZAXFHJVJLSVMW-UHFFFAOYSA-N

> <Salt_Solvent>
[O-][N+](=O)O

> <Salt_Solvent_ID>
1783

> <Number of connected components>
2

$$$$
Molecule_1303
  Mrv2316 01072400032D          

 11 10  0  0  0  0            999 V2000
   -0.1914    0.7145    0.0000 C   0  0  0  0  0  0  0  0  0  0  0  0
    0.5230    1.1270    0.0000 C   0  0  0  0  0  0  0  0  0  0  0  0
    1.2375    0.7145    0.0000 C   0  0  0  0  0  0  0  0  0  0  0  0
    1.9520    1.1270    0.0000 C   0  0  0  0  0  0  0  0  0  0  0  0
    2.6664    0.7145    0.0000 C   0  0  0  0  0  0  0  0  0  0  0  0
    3.3809    1.1270    0.0000 C   0  0  0  0  0  0  0  0  0  0  0  0
    4.0954    0.7145    0.0000 C   0  0  0  0  0  0  0  0  0  0  0  0
    4.8099    1.1270    0.0000 C   0  0  0  0  0  0  0  0  0  0  0  0
    4.8099    1.9520    0.0000 C   0  0  0  0  0  0  0  0  0  0  0  0
    5.5243    2.3645    0.0000 C   0  0  0  0  0  0  0  0  0  0  0  0
    5.5243    3.1895    0.0000 O   0  0  0  0  0  0  0  0  0  0  0  0
  1  2  1  0  0  0  0
  2  3  1  0  0  0  0
  3  4  1  0  0  0  0
  4  5  1  0  0  0  0
  6  5  1  4  0  0  0
  6  7  2  0  0  0  0
  7  8  1  0  0  0  0
  8  9  1  0  0  0  0
  9 10  1  0  0  0  0
 10 11  2  0  0  0  0
M  END
> <RowID>
1303

> <Original_SMILES>
CCCCCC=CCCC=O

> <Canonical_QSARr>
CCCCCC=CCCC=O

> <InChI_Code_QSARr>
InChI=1S/C10H18O/c1-2-3-4-5-6-7-8-9-10-11/h6-7,10H,2-5,8-9H2,1H3

> <InChI Key_QSARr>
CWRKZMLUDFBPAO-UHFFFAOYSA-N

> <Salt_Solvent>


> <Salt_Solvent_ID>
0

> <Number of connected components>
1

$$$$
Molecule_1305
  Mrv2316 01072400032D          

 12 12  0  0  0  0            999 V2000
    1.1908   -2.7500    0.0000 N   0  0  0  0  0  0  0  0  0  0  0  0
    1.1908   -1.9250    0.0000 C   0  0  0  0  0  0  0  0  0  0  0  0
    1.9052   -1.5125    0.0000 C   0  0  0  0  0  0  0  0  0  0  0  0
    1.9052   -0.6875    0.0000 C   0  0  0  0  0  0  0  0  0  0  0  0
    1.1908   -0.2750    0.0000 C   0  0  0  0  0  0  0  0  0  0  0  0
    1.1908    0.5500    0.0000 O   0  0  0  0  0  0  0  0  0  0  0  0
    0.4763    0.9625    0.0000 C   0  0  0  0  0  0  0  0  0  0  0  0
    0.4763    1.7875    0.0000 C   0  0  0  0  0  0  0  0  0  0  0  0
   -0.2382    2.2000    0.0000 O   0  0  0  0  0  0  0  0  0  0  0  0
    0.4763   -0.6875    0.0000 C   0  0  0  0  0  0  0  0  0  0  0  0
   -0.2382   -0.2750    0.0000 N   0  0  0  0  0  0  0  0  0  0  0  0
    0.4763   -1.5125    0.0000 C   0  0  0  0  0  0  0  0  0  0  0  0
  1  2  1  0  0  0  0
  3  2  1  0  0  0  0
  4  3  2  0  0  0  0
  5  4  1  0  0  0  0
  5  6  1  0  0  0  0
  6  7  1  0  0  0  0
  7  8  1  0  0  0  0
  8  9  1  0  0  0  0
 10  5  2  0  0  0  0
 10 11  1  0  0  0  0
 12 10  1  0  0  0  0
  2 12  2  0  0  0  0
M  END
> <RowID>
1305

> <Original_SMILES>
Cl.Cl.NC1=CC(N)=C(C=C1)OCCO

> <Canonical_QSARr>
NC1=CC(N)=C(C=C1)OCCO

> <InChI_Code_QSARr>
InChI=1S/C8H12N2O2/c9-6-1-2-8(7(10)5-6)12-4-3-11/h1-2,5,11H,3-4,9-10H2

> <InChI Key_QSARr>
WCPGNFONICRLCL-UHFFFAOYSA-N

> <Salt_Solvent>
Cl

> <Salt_Solvent_ID>
170

> <Number of connected components>
3

$$$$
Molecule_1306
  Mrv2316 01072400032D          

  7  6  0  0  0  0            999 V2000
    1.2375    2.1434    0.0000 C   0  0  0  0  0  0  0  0  0  0  0  0
    0.8250    1.4289    0.0000 C   0  0  0  0  0  0  0  0  0  0  0  0
   -0.0000    1.4289    0.0000 O   0  0  0  0  0  0  0  0  0  0  0  0
    1.2375    0.7145    0.0000 C   0  0  0  0  0  0  0  0  0  0  0  0
    0.8250   -0.0000    0.0000 C   0  0  0  0  0  0  0  0  0  0  0  0
    1.2375   -0.7145    0.0000 N   0  0  0  0  0  0  0  0  0  0  0  0
    0.0000   -0.0000    0.0000 O   0  0  0  0  0  0  0  0  0  0  0  0
  1  2  1  0  0  0  0
  2  3  2  0  0  0  0
  2  4  1  0  0  0  0
  4  5  1  0  0  0  0
  5  6  1  0  0  0  0
  5  7  2  0  0  0  0
M  END
> <RowID>
1306

> <Original_SMILES>
CC(=O)CC(N)=O

> <Canonical_QSARr>
CC(=O)CC(N)=O

> <InChI_Code_QSARr>
InChI=1S/C4H7NO2/c1-3(6)2-4(5)7/h2H2,1H3,(H2,5,7)

> <InChI Key_QSARr>
GCPWJFKTWGFEHH-UHFFFAOYSA-N

> <Salt_Solvent>


> <Salt_Solvent_ID>
0

> <Number of connected components>
1

$$$$
Molecule_1307
  Mrv2316 01072400032D          

 17 18  0  0  0  0            999 V2000
    1.3869   -1.7228    0.0000 N   0  0  0  0  0  0  0  0  0  0  0  0
    2.1014   -1.3103    0.0000 C   0  0  0  0  0  0  0  0  0  0  0  0
    2.1014   -0.4853    0.0000 C   0  0  0  0  0  0  0  0  0  0  0  0
    2.8159   -0.0728    0.0000 C   0  0  0  0  0  0  0  0  0  0  0  0
    2.8159    0.7522    0.0000 Cl  0  0  0  0  0  0  0  0  0  0  0  0
    3.5303   -0.4853    0.0000 C   0  0  0  0  0  0  0  0  0  0  0  0
    3.5303   -1.3103    0.0000 C   0  0  0  0  0  0  0  0  0  0  0  0
    2.8159   -1.7228    0.0000 C   0  0  0  0  0  0  0  0  0  0  0  0
    2.8159   -2.5478    0.0000 O   0  0  0  0  0  0  0  0  0  0  0  0
    3.5303   -2.9603    0.0000 C   0  0  0  0  0  0  0  0  0  0  0  0
    3.5303   -3.7853    0.0000 C   0  0  0  0  0  0  0  0  0  0  0  0
    4.2448   -4.1978    0.0000 C   0  0  0  0  0  0  0  0  0  0  0  0
    4.9593   -3.7853    0.0000 C   0  0  0  0  0  0  0  0  0  0  0  0
    5.6737   -4.1978    0.0000 Cl  0  0  0  0  0  0  0  0  0  0  0  0
    4.9593   -2.9603    0.0000 C   0  0  0  0  0  0  0  0  0  0  0  0
    4.2448   -2.5478    0.0000 C   0  0  0  0  0  0  0  0  0  0  0  0
    4.2448   -1.7228    0.0000 Cl  0  0  0  0  0  0  0  0  0  0  0  0
  1  2  1  0  0  0  0
  3  2  1  0  0  0  0
  4  3  2  0  0  0  0
  4  5  1  0  0  0  0
  6  4  1  0  0  0  0
  7  6  2  0  0  0  0
  8  7  1  0  0  0  0
  2  8  2  0  0  0  0
  8  9  1  0  0  0  0
  9 10  1  0  0  0  0
 11 10  1  0  0  0  0
 12 11  2  0  0  0  0
 13 12  1  0  0  0  0
 13 14  1  0  0  0  0
 15 13  2  0  0  0  0
 16 15  1  0  0  0  0
 10 16  2  0  0  0  0
 16 17  1  0  0  0  0
M  END
> <RowID>
1307

> <Original_SMILES>
NC1C=C(Cl)C=CC=1OC1C=CC(Cl)=CC=1Cl

> <Canonical_QSARr>
NC1C=C(Cl)C=CC=1OC1C=CC(Cl)=CC=1Cl

> <InChI_Code_QSARr>
InChI=1S/C12H8Cl3NO/c13-7-1-3-11(9(15)5-7)17-12-4-2-8(14)6-10(12)16/h1-6H,16H2

> <InChI Key_QSARr>
SOOLDKUMSVNBIW-UHFFFAOYSA-N

> <Salt_Solvent>


> <Salt_Solvent_ID>
0

> <Number of connected components>
1

$$$$
Molecule_1308
  Mrv2316 01072400032D          

 14 15  0  0  0  0            999 V2000
   -2.1434    0.4125    0.0000 O   0  0  0  0  0  0  0  0  0  0  0  0
   -1.4289    0.0000    0.0000 S   0  0  0  0  0  0  0  0  0  0  0  0
   -0.7145   -0.4125    0.0000 C   0  0  0  0  0  0  0  0  0  0  0  0
   -0.7145   -1.2375    0.0000 C   0  0  0  0  0  0  0  0  0  0  0  0
    0.0000   -1.6500    0.0000 C   0  0  0  0  0  0  0  0  0  0  0  0
    0.7145   -1.2375    0.0000 C   0  0  0  0  0  0  0  0  0  0  0  0
    0.7145   -0.4125    0.0000 C   0  0  0  0  0  0  0  0  0  0  0  0
    1.4289   -0.0000    0.0000 C   0  0  0  0  0  0  0  0  0  0  0  0
    2.1434   -0.4125    0.0000 C   0  0  0  0  0  0  0  0  0  0  0  0
    2.1434   -1.2375    0.0000 C   0  0  0  0  0  0  0  0  0  0  0  0
    1.4289   -1.6500    0.0000 C   0  0  0  0  0  0  0  0  0  0  0  0
    0.0000   -0.0000    0.0000 C   0  0  0  0  0  0  0  0  0  0  0  0
   -1.8414   -0.7145    0.0000 O   0  0  0  0  0  0  0  0  0  0  0  0
   -1.0164    0.7145    0.0000 O   0  0  0  0  0  0  0  0  0  0  0  0
  1  2  1  0  0  0  0
  2  3  1  0  0  0  0
  4  3  2  0  0  0  0
  5  4  1  0  0  0  0
  6  5  2  0  0  0  0
  6  7  1  0  0  0  0
  7  8  1  0  0  0  0
  8  9  2  0  0  0  0
  9 10  1  0  0  0  0
 10 11  2  0  0  0  0
 11  6  1  0  0  0  0
 12  7  2  0  0  0  0
  3 12  1  0  0  0  0
  2 13  2  0  0  0  0
  2 14  2  0  0  0  0
M  END
> <RowID>
1308

> <Original_SMILES>
N%91.OS(=O)(=O)C1C=C2C=CC=CC2=CC=1.[*]%91

> <Canonical_QSARr>
OS(=O)(=O)C1C=C2C=CC=CC2=CC=1

> <InChI_Code_QSARr>
InChI=1S/C10H8O3S/c11-14(12,13)10-6-5-8-3-1-2-4-9(8)7-10/h1-7H,(H,11,12,13)

> <InChI Key_QSARr>
KVBGVZZKJNLNJU-UHFFFAOYSA-N

> <Salt_Solvent>
N%91.[*]%91

> <Salt_Solvent_ID>
1533

> <Number of connected components>
2

$$$$
Molecule_1309
  Mrv2316 01072400032D          

 15 15  0  0  0  0            999 V2000
    0.7145   -4.0975    0.0000 C   0  0  0  0  0  0  0  0  0  0  0  0
    1.4289   -3.6850    0.0000 C   0  0  0  0  0  0  0  0  0  0  0  0
    2.1434   -4.0975    0.0000 O   0  0  0  0  0  0  0  0  0  0  0  0
    1.4289   -2.8600    0.0000 O   0  0  0  0  0  0  0  0  0  0  0  0
    2.1434   -2.4475    0.0000 C   0  0  0  0  0  0  0  0  0  0  0  0
    2.1434   -1.6225    0.0000 C   0  0  0  0  0  0  0  0  0  0  0  0
    2.8579   -1.2100    0.0000 C   0  0  0  0  0  0  0  0  0  0  0  0
    2.8579   -0.3850    0.0000 C   0  0  0  0  0  0  0  0  0  0  0  0
    2.1434    0.0275    0.0000 C   0  0  0  0  0  0  0  0  0  0  0  0
    1.4289   -0.3850    0.0000 C   0  0  0  0  0  0  0  0  0  0  0  0
    1.4289   -1.2100    0.0000 C   0  0  0  0  0  0  0  0  0  0  0  0
    2.8579   -2.8600    0.0000 C   0  0  0  0  0  0  0  0  0  0  0  0
    2.4454   -3.5745    0.0000 Cl  0  0  0  0  0  0  0  0  0  0  0  0
    3.2704   -2.1455    0.0000 Cl  0  0  0  0  0  0  0  0  0  0  0  0
    3.5724   -3.2725    0.0000 Cl  0  0  0  0  0  0  0  0  0  0  0  0
  1  2  1  0  0  0  0
  2  3  2  0  0  0  0
  2  4  1  0  0  0  0
  4  5  1  0  0  0  0
  5  6  1  0  0  0  0
  7  6  1  0  0  0  0
  8  7  2  0  0  0  0
  9  8  1  0  0  0  0
 10  9  2  0  0  0  0
 11 10  1  0  0  0  0
  6 11  2  0  0  0  0
  5 12  1  0  0  0  0
 12 13  1  0  0  0  0
 12 14  1  0  0  0  0
 12 15  1  0  0  0  0
M  END
> <RowID>
1309

> <Original_SMILES>
CC(=O)OC(C1C=CC=CC=1)C(Cl)(Cl)Cl

> <Canonical_QSARr>
CC(=O)OC(C1C=CC=CC=1)C(Cl)(Cl)Cl

> <InChI_Code_QSARr>
InChI=1S/C10H9Cl3O2/c1-7(14)15-9(10(11,12)13)8-5-3-2-4-6-8/h2-6,9H,1H3

> <InChI Key_QSARr>
JKRWZLOCPLZZEI-UHFFFAOYSA-N

> <Salt_Solvent>


> <Salt_Solvent_ID>
0

> <Number of connected components>
1

$$$$
Molecule_1310
  Mrv2316 01072400032D          

 30 32  0  0  0  0            999 V2000
    4.4002   -1.2762    0.0000 C   0  0  0  0  0  0  0  0  0  0  0  0
    3.6858   -0.8637    0.0000 C   0  0  0  0  0  0  0  0  0  0  0  0
    4.0983   -0.1492    0.0000 C   0  0  0  0  0  0  0  0  0  0  0  0
    3.2733   -1.5782    0.0000 O   0  0  0  0  0  0  0  0  0  0  0  0
    2.9713   -0.4512    0.0000 C   0  0  0  0  0  0  0  0  0  0  0  0
    2.9713    0.3738    0.0000 O   0  0  0  0  0  0  0  0  0  0  0  0
    2.2568   -0.8637    0.0000 C   0  0  0  0  0  0  0  0  0  0  0  0
    1.5424   -0.4512    0.0000 C   0  0  0  0  0  0  0  0  0  0  0  0
    0.8279   -0.8637    0.0000 C   0  0  0  0  0  0  0  0  0  0  0  0
    0.8279   -1.6887    0.0000 C   0  0  0  0  0  0  0  0  0  0  0  0
    0.0433   -1.9436    0.0000 C   0  0  0  0  0  0  0  0  0  0  0  0
    0.3788   -2.6973    0.0000 C   0  0  0  0  0  0  0  0  0  0  0  0
   -0.6712   -2.3561    0.0000 C   0  0  0  0  0  0  0  0  0  0  0  0
   -0.4417   -1.2762    0.0000 C   0  0  0  0  0  0  0  0  0  0  0  0
    0.0433   -0.6088    0.0000 C   0  0  0  0  0  0  0  0  0  0  0  0
   -0.5640   -0.0503    0.0000 C   0  0  0  0  0  0  0  0  0  0  0  0
    0.2063    0.2000    0.0000 C   0  0  0  0  0  0  0  0  0  0  0  0
    0.9882    0.4631    0.0000 C   0  0  0  0  0  0  0  0  0  0  0  0
    1.1513    1.2718    0.0000 C   0  0  0  0  0  0  0  0  0  0  0  0
    0.5325    1.8174    0.0000 C   0  0  0  0  0  0  0  0  0  0  0  0
    0.6955    2.6261    0.0000 C   0  0  0  0  0  0  0  0  0  0  0  0
    1.4774    2.8893    0.0000 O   0  0  0  0  0  0  0  0  0  0  0  0
    0.0767    3.1717    0.0000 C   0  0  0  0  0  0  0  0  0  0  0  0
   -0.5421    3.7173    0.0000 C   0  0  0  0  0  0  0  0  0  0  0  0
    0.6223    3.7906    0.0000 C   0  0  0  0  0  0  0  0  0  0  0  0
   -0.4689    2.5529    0.0000 O   0  0  0  0  0  0  0  0  0  0  0  0
   -0.2494    1.5543    0.0000 C   0  0  0  0  0  0  0  0  0  0  0  0
   -0.4125    0.7456    0.0000 C   0  0  0  0  0  0  0  0  0  0  0  0
    1.5424   -2.1012    0.0000 C   0  0  0  0  0  0  0  0  0  0  0  0
    2.2568   -1.6887    0.0000 C   0  0  0  0  0  0  0  0  0  0  0  0
  1  2  1  0  0  0  0
  2  3  1  0  0  0  0
  2  4  1  0  0  0  0
  2  5  1  0  0  0  0
  5  6  2  0  0  0  0
  5  7  1  0  0  0  0
  8  7  2  0  0  0  0
  9  8  1  0  0  0  0
  9 10  2  0  0  0  0
 10 11  1  0  0  0  0
 11 12  1  0  0  0  0
 11 13  1  0  0  0  0
 11 14  1  0  0  0  0
 14 15  1  0  0  0  0
 15  9  1  0  0  0  0
 15 16  1  0  0  0  0
 15 17  1  0  0  0  0
 18 17  1  0  0  0  0
 19 18  2  0  0  0  0
 20 19  1  0  0  0  0
 20 21  1  0  0  0  0
 21 22  2  0  0  0  0
 21 23  1  0  0  0  0
 23 24  1  0  0  0  0
 23 25  1  0  0  0  0
 23 26  1  0  0  0  0
 27 20  2  0  0  0  0
 28 27  1  0  0  0  0
 17 28  2  0  0  0  0
 29 10  1  0  0  0  0
 30 29  2  0  0  0  0
  7 30  1  0  0  0  0
M  END
> <RowID>
1310

> <Original_SMILES>
CC(C)(O)C(=O)C1=CC2=C(C=C1)C(C)(C)CC2(C)C1C=CC(=CC=1)C(=O)C(C)(C)O

> <Canonical_QSARr>
CC(C)(O)C(=O)C1=CC2=C(C=C1)C(C)(C)CC2(C)C1C=CC(=CC=1)C(=O)C(C)(C)O

> <InChI_Code_QSARr>
InChI=1S/C26H32O4/c1-23(2)15-26(7,18-11-8-16(9-12-18)21(27)24(3,4)29)20-14-17(10-13-19(20)23)22(28)25(5,6)30/h8-14,29-30H,15H2,1-7H3

> <InChI Key_QSARr>
AVZGRVCEWBPUNN-UHFFFAOYSA-N

> <Salt_Solvent>


> <Salt_Solvent_ID>
0

> <Number of connected components>
1

$$$$
Molecule_1311
  Mrv2316 01072400032D          

 15 15  0  0  0  0            999 V2000
   -0.4584   -0.2366    0.0000 C   0  0  0  0  0  0  0  0  0  0  0  0
    0.1547    0.3154    0.0000 C   0  0  0  0  0  0  0  0  0  0  0  0
    0.9394    0.0605    0.0000 C   0  0  0  0  0  0  0  0  0  0  0  0
    1.5525    0.6125    0.0000 C   0  0  0  0  0  0  0  0  0  0  0  0
    2.3371    0.3576    0.0000 C   0  0  0  0  0  0  0  0  0  0  0  0
    2.5920   -0.4271    0.0000 C   0  0  0  0  0  0  0  0  0  0  0  0
    3.4170   -0.4271    0.0000 C   0  0  0  0  0  0  0  0  0  0  0  0
    3.6720    0.3576    0.0000 C   0  0  0  0  0  0  0  0  0  0  0  0
    4.4566    0.6125    0.0000 C   0  0  0  0  0  0  0  0  0  0  0  0
    3.0045    0.8425    0.0000 C   0  0  0  0  0  0  0  0  0  0  0  0
    3.4095    1.5612    0.0000 C   0  0  0  0  0  0  0  0  0  0  0  0
    2.5995    1.5612    0.0000 C   0  0  0  0  0  0  0  0  0  0  0  0
   -0.0168    1.1224    0.0000 C   0  0  0  0  0  0  0  0  0  0  0  0
   -0.8014    1.3773    0.0000 C   0  0  0  0  0  0  0  0  0  0  0  0
    0.5963    1.6744    0.0000 O   0  0  0  0  0  0  0  0  0  0  0  0
  1  2  1  0  0  0  0
  3  2  1  4  0  0  0
  3  4  2  0  0  0  0
  4  5  1  0  0  0  0
  6  5  1  0  0  0  0
  7  6  1  0  0  0  0
  8  7  2  0  0  0  0
  8  9  1  0  0  0  0
 10  8  1  0  0  0  0
  5 10  1  0  0  0  0
 10 11  1  0  0  0  0
 10 12  1  0  0  0  0
  2 13  1  0  0  0  0
 13 14  1  0  0  0  0
 13 15  2  0  0  0  0
M  END
> <RowID>
1311

> <Original_SMILES>
CC(C=CC1CC=C(C)C1(C)C)C(C)=O

> <Canonical_QSARr>
CC(C=CC1CC=C(C)C1(C)C)C(C)=O

> <InChI_Code_QSARr>
InChI=1S/C14H22O/c1-10(12(3)15)6-8-13-9-7-11(2)14(13,4)5/h6-8,10,13H,9H2,1-5H3

> <InChI Key_QSARr>
WPDAGRUACGXJJP-UHFFFAOYSA-N

> <Salt_Solvent>


> <Salt_Solvent_ID>
0

> <Number of connected components>
1

$$$$
Molecule_1312
  Mrv2316 01072400032D          

 19 20  0  0  0  0            999 V2000
    1.9111   -1.5019    0.0000 C   0  0  0  0  0  0  0  0  0  0  0  0
    2.7361   -1.5019    0.0000 O   0  0  0  0  0  0  0  0  0  0  0  0
    3.1486   -0.7874    0.0000 C   0  0  0  0  0  0  0  0  0  0  0  0
    3.5611   -0.0729    0.0000 O   0  0  0  0  0  0  0  0  0  0  0  0
    4.3861   -0.0729    0.0000 C   0  0  0  0  0  0  0  0  0  0  0  0
    3.8631   -1.1999    0.0000 C   0  0  0  0  0  0  0  0  0  0  0  0
    4.5776   -0.7874    0.0000 O   0  0  0  0  0  0  0  0  0  0  0  0
    3.8631   -2.0249    0.0000 C   0  0  0  0  0  0  0  0  0  0  0  0
    3.1486   -2.4374    0.0000 C   0  0  0  0  0  0  0  0  0  0  0  0
    3.1486   -3.2624    0.0000 C   0  0  0  0  0  0  0  0  0  0  0  0
    3.8631   -3.6749    0.0000 C   0  0  0  0  0  0  0  0  0  0  0  0
    4.5776   -3.2624    0.0000 C   0  0  0  0  0  0  0  0  0  0  0  0
    4.5776   -2.4374    0.0000 C   0  0  0  0  0  0  0  0  0  0  0  0
    2.4342   -0.3749    0.0000 C   0  0  0  0  0  0  0  0  0  0  0  0
    2.4342    0.4501    0.0000 C   0  0  0  0  0  0  0  0  0  0  0  0
    1.7197    0.8626    0.0000 C   0  0  0  0  0  0  0  0  0  0  0  0
    1.0052    0.4501    0.0000 C   0  0  0  0  0  0  0  0  0  0  0  0
    1.0052   -0.3749    0.0000 C   0  0  0  0  0  0  0  0  0  0  0  0
    1.7197   -0.7874    0.0000 C   0  0  0  0  0  0  0  0  0  0  0  0
  1  2  1  0  0  0  0
  2  3  1  0  0  0  0
  3  4  1  0  0  0  0
  4  5  1  0  0  0  0
  3  6  1  0  0  0  0
  6  7  2  0  0  0  0
  6  8  1  0  0  0  0
  9  8  1  0  0  0  0
 10  9  2  0  0  0  0
 11 10  1  0  0  0  0
 12 11  2  0  0  0  0
 13 12  1  0  0  0  0
  8 13  2  0  0  0  0
  3 14  1  0  0  0  0
 15 14  1  0  0  0  0
 16 15  2  0  0  0  0
 17 16  1  0  0  0  0
 18 17  2  0  0  0  0
 19 18  1  0  0  0  0
 14 19  2  0  0  0  0
M  END
> <RowID>
1312

> <Original_SMILES>
COC(OC)(C(=O)C1C=CC=CC=1)C1C=CC=CC=1

> <Canonical_QSARr>
COC(OC)(C(=O)C1C=CC=CC=1)C1C=CC=CC=1

> <InChI_Code_QSARr>
InChI=1S/C16H16O3/c1-18-16(19-2,14-11-7-4-8-12-14)15(17)13-9-5-3-6-10-13/h3-12H,1-2H3

> <InChI Key_QSARr>
KWVGIHKZDCUPEU-UHFFFAOYSA-N

> <Salt_Solvent>


> <Salt_Solvent_ID>
0

> <Number of connected components>
1

$$$$
Molecule_1313
  Mrv2316 01072400032D          

 10  9  0  0  0  0            999 V2000
   -0.1914    0.7145    0.0000 O   0  0  0  0  0  0  0  0  0  0  0  0
    0.5230    1.1270    0.0000 C   0  0  0  0  0  0  0  0  0  0  0  0
    0.5230    1.9520    0.0000 O   0  0  0  0  0  0  0  0  0  0  0  0
    1.2375    0.7145    0.0000 C   0  0  0  0  0  0  0  0  0  0  0  0
    1.9520    1.1270    0.0000 C   0  0  0  0  0  0  0  0  0  0  0  0
    2.6664    0.7145    0.0000 C   0  0  0  0  0  0  0  0  0  0  0  0
    3.3809    1.1270    0.0000 O   0  0  0  0  0  0  0  0  0  0  0  0
    2.6664   -0.1105    0.0000 O   0  0  0  0  0  0  0  0  0  0  0  0
    1.9520    1.9520    0.0000 O   0  0  0  0  0  0  0  0  0  0  0  0
    1.2375   -0.1105    0.0000 O   0  0  0  0  0  0  0  0  0  0  0  0
  1  2  1  0  0  0  0
  2  3  2  0  0  0  0
  2  4  1  0  0  0  0
  4  5  1  0  0  0  0
  5  6  1  0  0  0  0
  6  7  2  0  0  0  0
  6  8  1  0  0  0  0
  5  9  1  0  0  0  0
  4 10  1  0  0  0  0
M  END
> <RowID>
1313

> <Original_SMILES>
[K+].[O-]C(=O)C(O)C(O)C(O)=O

> <Canonical_QSARr>
OC(=O)C(O)C(O)C(O)=O

> <InChI_Code_QSARr>
InChI=1S/C4H6O6/c5-1(3(7)8)2(6)4(9)10/h1-2,5-6H,(H,7,8)(H,9,10)

> <InChI Key_QSARr>
FEWJPZIEWOKRBE-UHFFFAOYSA-N

> <Salt_Solvent>
[K+]

> <Salt_Solvent_ID>
190

> <Number of connected components>
2

$$$$
Molecule_1314
  Mrv2316 01072400032D          

 13 13  0  0  0  0            999 V2000
   -0.0550   -1.2375    0.0000 C   0  0  0  0  0  0  0  0  0  0  0  0
    0.6595   -1.6500    0.0000 C   0  0  0  0  0  0  0  0  0  0  0  0
    0.6595   -2.4750    0.0000 C   0  0  0  0  0  0  0  0  0  0  0  0
   -0.0550   -2.8875    0.0000 O   0  0  0  0  0  0  0  0  0  0  0  0
    1.3740   -1.2375    0.0000 C   0  0  0  0  0  0  0  0  0  0  0  0
    1.3740   -0.4125    0.0000 C   0  0  0  0  0  0  0  0  0  0  0  0
    2.0884    0.0000    0.0000 O   0  0  0  0  0  0  0  0  0  0  0  0
    2.0884    0.8250    0.0000 C   0  0  0  0  0  0  0  0  0  0  0  0
    1.3740    1.2375    0.0000 C   0  0  0  0  0  0  0  0  0  0  0  0
    1.9043    1.8695    0.0000 C   0  0  0  0  0  0  0  0  0  0  0  0
    0.8437    1.8695    0.0000 C   0  0  0  0  0  0  0  0  0  0  0  0
    0.6595    0.8250    0.0000 C   0  0  0  0  0  0  0  0  0  0  0  0
    0.6595    0.0000    0.0000 O   0  0  0  0  0  0  0  0  0  0  0  0
  1  2  1  0  0  0  0
  2  3  1  0  0  0  0
  3  4  2  0  0  0  0
  2  5  2  0  0  0  0
  5  6  1  4  0  0  0
  7  6  1  0  0  0  0
  8  7  1  0  0  0  0
  9  8  1  0  0  0  0
  9 10  1  0  0  0  0
  9 11  1  0  0  0  0
 12  9  1  0  0  0  0
 13 12  1  0  0  0  0
  6 13  1  0  0  0  0
M  END
> <RowID>
1314

> <Original_SMILES>
CC(C=O)=CC1OCC(C)(C)CO1

> <Canonical_QSARr>
CC(C=O)=CC1OCC(C)(C)CO1

> <InChI_Code_QSARr>
InChI=1S/C10H16O3/c1-8(5-11)4-9-12-6-10(2,3)7-13-9/h4-5,9H,6-7H2,1-3H3

> <InChI Key_QSARr>
IKGLKDCWHOWCMD-UHFFFAOYSA-N

> <Salt_Solvent>


> <Salt_Solvent_ID>
0

> <Number of connected components>
1

$$$$
Molecule_1315
  Mrv2316 01072400032D          

  7  6  0  0  0  0            999 V2000
    2.4750   -1.4289    0.0000 O   0  0  0  0  0  0  0  0  0  0  0  0
    2.0625   -0.7145    0.0000 S   0  0  0  0  0  0  0  0  0  0  0  0
    2.7770   -0.3020    0.0000 O   0  0  0  0  0  0  0  0  0  0  0  0
    1.3480   -1.1270    0.0000 O   0  0  0  0  0  0  0  0  0  0  0  0
    1.6500   -0.0000    0.0000 C   0  0  0  0  0  0  0  0  0  0  0  0
    0.8250   -0.0000    0.0000 C   0  0  0  0  0  0  0  0  0  0  0  0
    0.0000   -0.0000    0.0000 C   0  0  0  0  0  0  0  0  0  0  0  0
  1  2  1  0  0  0  0
  2  3  2  0  0  0  0
  2  4  2  0  0  0  0
  2  5  1  0  0  0  0
  5  6  1  0  0  0  0
  6  7  3  0  0  0  0
M  END
> <RowID>
1315

> <Original_SMILES>
[Na+].C#CCS([O-])(=O)=O

> <Canonical_QSARr>
C#CCS(O)(=O)=O

> <InChI_Code_QSARr>
InChI=1S/C3H4O3S/c1-2-3-7(4,5)6/h1H,3H2,(H,4,5,6)

> <InChI Key_QSARr>
UOCCVDMCNJYVIW-UHFFFAOYSA-N

> <Salt_Solvent>
[Na+]

> <Salt_Solvent_ID>
110

> <Number of connected components>
2

$$$$
Molecule_1316
  Mrv2316 01072400032D          

 18 20  0  0  0  0            999 V2000
    2.3418   -2.4687    0.0000 O   0  0  0  0  0  0  0  0  0  0  0  0
    1.7898   -1.8556    0.0000 C   0  0  0  0  0  0  0  0  0  0  0  0
    2.0447   -1.0710    0.0000 C   0  0  0  0  0  0  0  0  0  0  0  0
    1.5598   -0.4036    0.0000 N   0  0  0  0  0  0  0  0  0  0  0  0
    2.0447    0.2639    0.0000 N   0  0  0  0  0  0  0  0  0  0  0  0
    1.7898    1.0485    0.0000 C   0  0  0  0  0  0  0  0  0  0  0  0
    0.9828    1.2200    0.0000 C   0  0  0  0  0  0  0  0  0  0  0  0
    0.7279    2.0047    0.0000 C   0  0  0  0  0  0  0  0  0  0  0  0
   -0.0791    2.1762    0.0000 C   0  0  0  0  0  0  0  0  0  0  0  0
   -0.6311    1.5631    0.0000 C   0  0  0  0  0  0  0  0  0  0  0  0
   -0.3762    0.7785    0.0000 C   0  0  0  0  0  0  0  0  0  0  0  0
    0.4308    0.6069    0.0000 C   0  0  0  0  0  0  0  0  0  0  0  0
    2.8293    0.0089    0.0000 C   0  0  0  0  0  0  0  0  0  0  0  0
    3.5438    0.4214    0.0000 C   0  0  0  0  0  0  0  0  0  0  0  0
    4.2583    0.0089    0.0000 C   0  0  0  0  0  0  0  0  0  0  0  0
    4.2583   -0.8161    0.0000 C   0  0  0  0  0  0  0  0  0  0  0  0
    3.5438   -1.2286    0.0000 C   0  0  0  0  0  0  0  0  0  0  0  0
    2.8293   -0.8161    0.0000 C   0  0  0  0  0  0  0  0  0  0  0  0
  1  2  1  0  0  0  0
  2  3  1  0  0  0  0
  4  3  2  0  0  0  0
  5  4  1  0  0  0  0
  5  6  1  0  0  0  0
  6  7  1  0  0  0  0
  8  7  1  0  0  0  0
  9  8  2  0  0  0  0
 10  9  1  0  0  0  0
 11 10  2  0  0  0  0
 12 11  1  0  0  0  0
  7 12  2  0  0  0  0
 13  5  1  0  0  0  0
 13 14  2  0  0  0  0
 14 15  1  0  0  0  0
 15 16  2  0  0  0  0
 16 17  1  0  0  0  0
 17 18  2  0  0  0  0
  3 18  1  0  0  0  0
 18 13  1  0  0  0  0
M  END
> <RowID>
1316

> <Original_SMILES>
OCC1=NN(CC2C=CC=CC=2)C2=CC=CC=C21

> <Canonical_QSARr>
OCC1=NN(CC2C=CC=CC=2)C2=CC=CC=C21

> <InChI_Code_QSARr>
InChI=1S/C15H14N2O/c18-11-14-13-8-4-5-9-15(13)17(16-14)10-12-6-2-1-3-7-12/h1-9,18H,10-11H2

> <InChI Key_QSARr>
AKQDXNFPEFHRLS-UHFFFAOYSA-N

> <Salt_Solvent>


> <Salt_Solvent_ID>
0

> <Number of connected components>
1

$$$$
Molecule_1318
  Mrv2316 01072400032D          

 20 19  0  0  0  0            999 V2000
    5.3328   -2.5854    0.0000 O   0  0  0  0  0  0  0  0  0  0  0  0
    4.5226   -2.7413    0.0000 C   0  0  0  0  0  0  0  0  0  0  0  0
    4.2526   -3.5209    0.0000 O   0  0  0  0  0  0  0  0  0  0  0  0
    3.9825   -2.1177    0.0000 C   0  0  0  0  0  0  0  0  0  0  0  0
    4.2526   -1.3381    0.0000 N   0  0  0  0  0  0  0  0  0  0  0  0
    3.7125   -0.7145    0.0000 C   0  0  0  0  0  0  0  0  0  0  0  0
    2.9024   -0.8704    0.0000 C   0  0  0  0  0  0  0  0  0  0  0  0
    2.6323   -1.6499    0.0000 O   0  0  0  0  0  0  0  0  0  0  0  0
    2.3623   -0.2467    0.0000 O   0  0  0  0  0  0  0  0  0  0  0  0
    5.0627   -1.1822    0.0000 C   0  0  0  0  0  0  0  0  0  0  0  0
    5.3328   -0.4027    0.0000 C   0  0  0  0  0  0  0  0  0  0  0  0
    6.1429   -0.2467    0.0000 N   0  0  0  0  0  0  0  0  0  0  0  0
    6.4129    0.5328    0.0000 C   0  0  0  0  0  0  0  0  0  0  0  0
    5.8729    1.1564    0.0000 C   0  0  0  0  0  0  0  0  0  0  0  0
    6.1429    1.9360    0.0000 O   0  0  0  0  0  0  0  0  0  0  0  0
    5.0627    1.0005    0.0000 O   0  0  0  0  0  0  0  0  0  0  0  0
    6.6830   -0.8704    0.0000 C   0  0  0  0  0  0  0  0  0  0  0  0
    7.4931   -0.7145    0.0000 C   0  0  0  0  0  0  0  0  0  0  0  0
    7.7632    0.0651    0.0000 O   0  0  0  0  0  0  0  0  0  0  0  0
    8.0332   -1.3381    0.0000 O   0  0  0  0  0  0  0  0  0  0  0  0
  1  2  1  0  0  0  0
  2  3  2  0  0  0  0
  2  4  1  0  0  0  0
  4  5  1  0  0  0  0
  5  6  1  0  0  0  0
  6  7  1  0  0  0  0
  7  8  1  0  0  0  0
  7  9  2  0  0  0  0
  5 10  1  0  0  0  0
 10 11  1  0  0  0  0
 11 12  1  0  0  0  0
 12 13  1  0  0  0  0
 13 14  1  0  0  0  0
 14 15  1  0  0  0  0
 14 16  2  0  0  0  0
 12 17  1  0  0  0  0
 17 18  1  0  0  0  0
 18 19  1  0  0  0  0
 18 20  2  0  0  0  0
M  END
> <RowID>
1318

> <Original_SMILES>
[Fe+2].[O-]C(=O)CN(CC([O-])=O)CCN(CC([O-])=O)CC([O-])=O

> <Canonical_QSARr>
OC(=O)CN(CC(O)=O)CCN(CC(O)=O)CC(O)=O

> <InChI_Code_QSARr>
InChI=1S/C10H16N2O8/c13-7(14)3-11(4-8(15)16)1-2-12(5-9(17)18)6-10(19)20/h1-6H2,(H,13,14)(H,15,16)(H,17,18)(H,19,20)

> <InChI Key_QSARr>
KCXVZYZYPLLWCC-UHFFFAOYSA-N

> <Salt_Solvent>
[Fe+2]

> <Salt_Solvent_ID>
260

> <Number of connected components>
2

$$$$
Molecule_1319
  Mrv2316 01072400032D          

 50 50  0  0  0  0            999 V2000
    2.3021   -0.0998    0.0000 C   0  0  0  0  0  0  0  0  0  0  0  0
    1.5876   -0.5123    0.0000 C   0  0  0  0  0  0  0  0  0  0  0  0
    2.1179   -1.1443    0.0000 C   0  0  0  0  0  0  0  0  0  0  0  0
    1.3055    0.2629    0.0000 C   0  0  0  0  0  0  0  0  0  0  0  0
    0.4930    0.4062    0.0000 C   0  0  0  0  0  0  0  0  0  0  0  0
    0.2108    1.1814    0.0000 N   0  0  0  0  0  0  0  0  0  0  0  0
    0.7411    1.8134    0.0000 C   0  0  0  0  0  0  0  0  0  0  0  0
    0.4590    2.5886    0.0000 C   0  0  0  0  0  0  0  0  0  0  0  0
   -0.3163    2.3065    0.0000 C   0  0  0  0  0  0  0  0  0  0  0  0
    1.2342    2.8708    0.0000 C   0  0  0  0  0  0  0  0  0  0  0  0
    0.1768    3.3639    0.0000 C   0  0  0  0  0  0  0  0  0  0  0  0
    0.7071    3.9959    0.0000 O   0  0  0  0  0  0  0  0  0  0  0  0
    0.4249    4.7711    0.0000 C   0  0  0  0  0  0  0  0  0  0  0  0
   -0.3875    4.9144    0.0000 O   0  0  0  0  0  0  0  0  0  0  0  0
    0.9552    5.4031    0.0000 C   0  0  0  0  0  0  0  0  0  0  0  0
    0.6731    6.1784    0.0000 C   0  0  0  0  0  0  0  0  0  0  0  0
    1.2034    6.8103    0.0000 C   0  0  0  0  0  0  0  0  0  0  0  0
    0.9212    7.5856    0.0000 C   0  0  0  0  0  0  0  0  0  0  0  0
    1.4515    8.2176    0.0000 C   0  0  0  0  0  0  0  0  0  0  0  0
    1.1693    8.9928    0.0000 C   0  0  0  0  0  0  0  0  0  0  0  0
    1.6996    9.6248    0.0000 C   0  0  0  0  0  0  0  0  0  0  0  0
    1.4175   10.4001    0.0000 C   0  0  0  0  0  0  0  0  0  0  0  0
    1.9478   11.0320    0.0000 C   0  0  0  0  0  0  0  0  0  0  0  0
    1.6656   11.8073    0.0000 C   0  0  0  0  0  0  0  0  0  0  0  0
    2.1959   12.4393    0.0000 C   0  0  0  0  0  0  0  0  0  0  0  0
   -0.0373   -0.2258    0.0000 C   0  0  0  0  0  0  0  0  0  0  0  0
    0.2449   -1.0011    0.0000 C   0  0  0  0  0  0  0  0  0  0  0  0
   -0.5676   -1.1443    0.0000 C   0  0  0  0  0  0  0  0  0  0  0  0
    0.2449   -1.8261    0.0000 C   0  0  0  0  0  0  0  0  0  0  0  0
    0.9593   -2.2386    0.0000 N   0  0  0  0  0  0  0  0  0  0  0  0
    0.9593   -3.0636    0.0000 C   0  0  0  0  0  0  0  0  0  0  0  0
    1.6738   -3.4761    0.0000 C   0  0  0  0  0  0  0  0  0  0  0  0
    1.2613   -4.1905    0.0000 C   0  0  0  0  0  0  0  0  0  0  0  0
    2.0863   -2.7616    0.0000 C   0  0  0  0  0  0  0  0  0  0  0  0
    2.3883   -3.8886    0.0000 C   0  0  0  0  0  0  0  0  0  0  0  0
    3.1028   -3.4761    0.0000 O   0  0  0  0  0  0  0  0  0  0  0  0
    3.8172   -3.8886    0.0000 C   0  0  0  0  0  0  0  0  0  0  0  0
    3.8172   -4.7136    0.0000 O   0  0  0  0  0  0  0  0  0  0  0  0
    4.5317   -3.4761    0.0000 C   0  0  0  0  0  0  0  0  0  0  0  0
    5.2462   -3.8886    0.0000 C   0  0  0  0  0  0  0  0  0  0  0  0
    5.9606   -3.4761    0.0000 C   0  0  0  0  0  0  0  0  0  0  0  0
    6.6751   -3.8886    0.0000 C   0  0  0  0  0  0  0  0  0  0  0  0
    7.3896   -3.4761    0.0000 C   0  0  0  0  0  0  0  0  0  0  0  0
    8.1041   -3.8886    0.0000 C   0  0  0  0  0  0  0  0  0  0  0  0
    8.8185   -3.4761    0.0000 C   0  0  0  0  0  0  0  0  0  0  0  0
    9.5330   -3.8886    0.0000 C   0  0  0  0  0  0  0  0  0  0  0  0
   10.2475   -3.4761    0.0000 C   0  0  0  0  0  0  0  0  0  0  0  0
   10.9619   -3.8886    0.0000 C   0  0  0  0  0  0  0  0  0  0  0  0
   11.6764   -3.4761    0.0000 C   0  0  0  0  0  0  0  0  0  0  0  0
    1.0573   -1.1443    0.0000 C   0  0  0  0  0  0  0  0  0  0  0  0
  1  2  1  0  0  0  0
  2  3  1  0  0  0  0
  4  2  1  0  0  0  0
  5  4  1  0  0  0  0
  6  5  1  4  0  0  0
  6  7  2  0  0  0  0
  7  8  1  0  0  0  0
  8  9  1  0  0  0  0
  8 10  1  0  0  0  0
  8 11  1  0  0  0  0
 11 12  1  0  0  0  0
 12 13  1  0  0  0  0
 13 14  2  0  0  0  0
 13 15  1  0  0  0  0
 15 16  1  0  0  0  0
 16 17  1  0  0  0  0
 17 18  1  0  0  0  0
 18 19  1  0  0  0  0
 19 20  1  0  0  0  0
 20 21  1  0  0  0  0
 21 22  1  0  0  0  0
 22 23  1  0  0  0  0
 23 24  1  0  0  0  0
 24 25  1  0  0  0  0
 26  5  1  0  0  0  0
 27 26  1  0  0  0  0
 27 28  1  0  0  0  0
 27 29  1  0  0  0  0
 30 29  1  4  0  0  0
 30 31  2  0  0  0  0
 31 32  1  0  0  0  0
 32 33  1  0  0  0  0
 32 34  1  0  0  0  0
 32 35  1  0  0  0  0
 35 36  1  0  0  0  0
 36 37  1  0  0  0  0
 37 38  2  0  0  0  0
 37 39  1  0  0  0  0
 39 40  1  0  0  0  0
 40 41  1  0  0  0  0
 41 42  1  0  0  0  0
 42 43  1  0  0  0  0
 43 44  1  0  0  0  0
 44 45  1  0  0  0  0
 45 46  1  0  0  0  0
 46 47  1  0  0  0  0
 47 48  1  0  0  0  0
 48 49  1  0  0  0  0
 50 27  1  0  0  0  0
  2 50  1  0  0  0  0
M  END
> <RowID>
1319

> <Original_SMILES>
CC1(C)CC(CC(C)(C1)CN=CC(C)(C)COC(=O)CCCCCCCCCCC)N=CC(C)(C)COC(=O)CCCCCCCCCCC

> <Canonical_QSARr>
CC1(C)CC(CC(C)(C1)CN=CC(C)(C)COC(=O)CCCCCCCCCCC)N=CC(C)(C)COC(=O)CCCCCCCCCCC

> <InChI_Code_QSARr>
InChI=1S/C44H82N2O4/c1-10-12-14-16-18-20-22-24-26-28-39(47)49-36-42(5,6)33-45-35-44(9)31-38(30-41(3,4)32-44)46-34-43(7,8)37-50-40(48)29-27-25-23-21-19-17-15-13-11-2/h33-34,38H,10-32,35-37H2,1-9H3

> <InChI Key_QSARr>
PLCJQVXNAMXZGB-UHFFFAOYSA-N

> <Salt_Solvent>


> <Salt_Solvent_ID>
0

> <Number of connected components>
1

$$$$
Molecule_1320
  Mrv2316 01072400032D          

 66 70  0  0  0  0            999 V2000
   -5.0013   -6.0750    0.0000 O   0  0  0  0  0  0  0  0  0  0  0  0
   -5.0013   -5.2500    0.0000 S   0  0  0  0  0  0  0  0  0  0  0  0
   -4.1763   -5.2500    0.0000 O   0  0  0  0  0  0  0  0  0  0  0  0
   -5.8263   -5.2500    0.0000 O   0  0  0  0  0  0  0  0  0  0  0  0
   -5.0013   -4.4250    0.0000 O   0  0  0  0  0  0  0  0  0  0  0  0
   -4.2868   -4.0125    0.0000 C   0  0  0  0  0  0  0  0  0  0  0  0
   -4.2868   -3.1875    0.0000 C   0  0  0  0  0  0  0  0  0  0  0  0
   -3.5723   -2.7750    0.0000 S   0  0  0  0  0  0  0  0  0  0  0  0
   -2.8579   -2.3625    0.0000 C   0  0  0  0  0  0  0  0  0  0  0  0
   -2.8579   -1.5375    0.0000 C   0  0  0  0  0  0  0  0  0  0  0  0
   -2.1434   -1.1250    0.0000 N   0  0  0  0  0  0  0  0  0  0  0  0
   -1.4289   -1.5375    0.0000 C   0  0  0  0  0  0  0  0  0  0  0  0
   -2.1434   -0.3000    0.0000 C   0  0  0  0  0  0  0  0  0  0  0  0
   -1.4289    0.1125    0.0000 N   0  0  0  0  0  0  0  0  0  0  0  0
   -1.4289    0.9375    0.0000 C   0  0  0  0  0  0  0  0  0  0  0  0
   -0.7145    1.3500    0.0000 N   0  0  0  0  0  0  0  0  0  0  0  0
    0.0000    0.9375    0.0000 C   0  0  0  0  0  0  0  0  0  0  0  0
    0.7145    1.3500    0.0000 C   0  0  0  0  0  0  0  0  0  0  0  0
    0.7145    2.1750    0.0000 S   0  0  0  0  0  0  0  0  0  0  0  0
    0.7145    3.0000    0.0000 O   0  0  0  0  0  0  0  0  0  0  0  0
    1.5395    2.1750    0.0000 O   0  0  0  0  0  0  0  0  0  0  0  0
   -0.1105    2.1750    0.0000 O   0  0  0  0  0  0  0  0  0  0  0  0
    1.4290    0.9375    0.0000 C   0  0  0  0  0  0  0  0  0  0  0  0
    2.1434    1.3500    0.0000 C   0  0  0  0  0  0  0  0  0  0  0  0
    2.8579    0.9375    0.0000 C   0  0  0  0  0  0  0  0  0  0  0  0
    2.8579    0.1125    0.0000 C   0  0  0  0  0  0  0  0  0  0  0  0
    3.5724   -0.3000    0.0000 N   0  0  0  0  0  0  0  0  0  0  0  0
    3.5724   -1.1250    0.0000 N   0  0  0  0  0  0  0  0  0  0  0  0
    4.2868   -1.5375    0.0000 C   0  0  0  0  0  0  0  0  0  0  0  0
    5.0013   -1.1250    0.0000 C   0  0  0  0  0  0  0  0  0  0  0  0
    5.0013   -0.3000    0.0000 N   0  0  0  0  0  0  0  0  0  0  0  0
    5.7158    0.1125    0.0000 N   0  0  0  0  0  0  0  0  0  0  0  0
    5.7158    0.9375    0.0000 C   0  0  0  0  0  0  0  0  0  0  0  0
    6.4303    1.3500    0.0000 C   0  0  0  0  0  0  0  0  0  0  0  0
    6.4303    2.1750    0.0000 C   0  0  0  0  0  0  0  0  0  0  0  0
    7.1447    2.5875    0.0000 S   0  0  0  0  0  0  0  0  0  0  0  0
    7.8592    3.0000    0.0000 O   0  0  0  0  0  0  0  0  0  0  0  0
    7.5572    1.8731    0.0000 O   0  0  0  0  0  0  0  0  0  0  0  0
    6.7322    3.3020    0.0000 O   0  0  0  0  0  0  0  0  0  0  0  0
    5.7158    2.5875    0.0000 C   0  0  0  0  0  0  0  0  0  0  0  0
    5.0013    2.1750    0.0000 C   0  0  0  0  0  0  0  0  0  0  0  0
    5.0013    1.3500    0.0000 C   0  0  0  0  0  0  0  0  0  0  0  0
    4.2868    0.9375    0.0000 O   0  0  0  0  0  0  0  0  0  0  0  0
    5.7158   -1.5375    0.0000 C   0  0  0  0  0  0  0  0  0  0  0  0
    5.7158   -2.3625    0.0000 C   0  0  0  0  0  0  0  0  0  0  0  0
    6.4303   -2.7750    0.0000 O   0  0  0  0  0  0  0  0  0  0  0  0
    7.1447   -2.3625    0.0000 C   0  0  0  0  0  0  0  0  0  0  0  0
    5.0013   -2.7750    0.0000 C   0  0  0  0  0  0  0  0  0  0  0  0
    5.0013   -3.6000    0.0000 O   0  0  0  0  0  0  0  0  0  0  0  0
    5.7158   -4.0125    0.0000 C   0  0  0  0  0  0  0  0  0  0  0  0
    4.2868   -2.3625    0.0000 C   0  0  0  0  0  0  0  0  0  0  0  0
    2.1434   -0.3000    0.0000 C   0  0  0  0  0  0  0  0  0  0  0  0
    2.1434   -1.1250    0.0000 O   0  0  0  0  0  0  0  0  0  0  0  0
    1.4290    0.1125    0.0000 C   0  0  0  0  0  0  0  0  0  0  0  0
    0.7145   -0.3000    0.0000 C   0  0  0  0  0  0  0  0  0  0  0  0
    0.0000    0.1125    0.0000 C   0  0  0  0  0  0  0  0  0  0  0  0
    3.5724    1.3500    0.0000 S   0  0  0  0  0  0  0  0  0  0  0  0
    4.2868    1.7625    0.0000 O   0  0  0  0  0  0  0  0  0  0  0  0
    3.9849    0.6356    0.0000 O   0  0  0  0  0  0  0  0  0  0  0  0
    3.1599    2.0645    0.0000 O   0  0  0  0  0  0  0  0  0  0  0  0
   -2.1434    1.3500    0.0000 N   0  0  0  0  0  0  0  0  0  0  0  0
   -2.8579    0.9375    0.0000 C   0  0  0  0  0  0  0  0  0  0  0  0
   -3.5723    1.3500    0.0000 F   0  0  0  0  0  0  0  0  0  0  0  0
   -2.8579    0.1125    0.0000 N   0  0  0  0  0  0  0  0  0  0  0  0
   -3.1598   -3.4894    0.0000 O   0  0  0  0  0  0  0  0  0  0  0  0
   -3.9848   -2.0605    0.0000 O   0  0  0  0  0  0  0  0  0  0  0  0
  1  2  1  0  0  0  0
  2  3  2  0  0  0  0
  2  4  2  0  0  0  0
  2  5  1  0  0  0  0
  5  6  1  0  0  0  0
  6  7  1  0  0  0  0
  7  8  1  0  0  0  0
  8  9  1  0  0  0  0
  9 10  1  0  0  0  0
 10 11  1  0  0  0  0
 11 12  1  0  0  0  0
 11 13  1  0  0  0  0
 14 13  2  0  0  0  0
 15 14  1  0  0  0  0
 15 16  1  0  0  0  0
 16 17  1  0  0  0  0
 18 17  1  0  0  0  0
 18 19  1  0  0  0  0
 19 20  1  0  0  0  0
 19 21  2  0  0  0  0
 19 22  2  0  0  0  0
 23 18  2  0  0  0  0
 23 24  1  0  0  0  0
 24 25  2  0  0  0  0
 25 26  1  0  0  0  0
 27 26  1  4  0  0  0
 27 28  2  0  0  0  0
 28 29  1  0  0  0  0
 30 29  2  0  0  0  0
 31 30  1  4  0  0  0
 31 32  2  0  0  0  0
 32 33  1  0  0  0  0
 34 33  1  0  0  0  0
 35 34  2  0  0  0  0
 35 36  1  0  0  0  0
 36 37  1  0  0  0  0
 36 38  2  0  0  0  0
 36 39  2  0  0  0  0
 40 35  1  0  0  0  0
 41 40  2  0  0  0  0
 42 41  1  0  0  0  0
 33 42  2  0  0  0  0
 42 43  1  0  0  0  0
 44 30  1  0  0  0  0
 45 44  2  0  0  0  0
 45 46  1  0  0  0  0
 46 47  1  0  0  0  0
 48 45  1  0  0  0  0
 48 49  1  0  0  0  0
 49 50  1  0  0  0  0
 51 48  2  0  0  0  0
 29 51  1  0  0  0  0
 26 52  2  0  0  0  0
 52 53  1  0  0  0  0
 52 54  1  0  0  0  0
 54 23  1  0  0  0  0
 55 54  2  0  0  0  0
 56 55  1  0  0  0  0
 17 56  2  0  0  0  0
 25 57  1  0  0  0  0
 57 58  1  0  0  0  0
 57 59  2  0  0  0  0
 57 60  2  0  0  0  0
 61 15  2  0  0  0  0
 62 61  1  0  0  0  0
 62 63  1  0  0  0  0
 64 62  2  0  0  0  0
 13 64  1  0  0  0  0
  8 65  2  0  0  0  0
  8 66  2  0  0  0  0
M  END
> <RowID>
1320

> <Original_SMILES>
[Na+].[Na+].[Na+].[Na+].[Cu+2].CN(CCS(=O)(=O)CCOS([O-])(=O)=O)C1N=C(F)N=C(NC2C=CC3C(=CC(=C(N=NC4=CC(OC)=C(C=C4N=NC4=CC(=CC=C4[O-])S([O-])(=O)=O)OC)C=3[O-])S([O-])(=O)=O)C=2S([O-])(=O)=O)N=1

> <Canonical_QSARr>
CN(CCS(=O)(=O)CCOS(O)(=O)=O)C1N=C(F)N=C(NC2=CC=C3C(C=C(C(N=NC4C=C(OC)C(=CC=4N=NC4C=C(C=CC=4O)S(O)(=O)=O)OC)=C3O)S(O)(=O)=O)=C2S(O)(=O)=O)N=1

> <InChI_Code_QSARr>
InChI=1S/C32H32FN9O19S5/c1-42(8-10-62(45,46)11-9-61-66(56,57)58)32-36-30(33)35-31(37-32)34-19-6-5-17-18(29(19)65(53,54)55)13-26(64(50,51)52)27(28(17)44)41-39-21-15-25(60-3)24(59-2)14-20(21)38-40-22-12-16(63(47,48)49)4-7-23(22)43/h4-7,12-15,43-44H,8-11H2,1-3H3,(H,47,48,49)(H,50,51,52)(H,53,54,55)(H,56,57,58)(H,34,35,36,37)

> <InChI Key_QSARr>
XPJPPTANLIYGJE-UHFFFAOYSA-N

> <Salt_Solvent>
[Na+].[Cu+2]

> <Salt_Solvent_ID>
200

> <Number of connected components>
6

$$$$
Molecule_1321
  Mrv2316 01072400032D          

 31 32  0  0  0  0            999 V2000
   -9.1394    0.4309    0.0000 C   0  0  0  0  0  0  0  0  0  0  0  0
   -8.4249    0.0184    0.0000 C   0  0  0  0  0  0  0  0  0  0  0  0
   -8.4249   -0.8066    0.0000 C   0  0  0  0  0  0  0  0  0  0  0  0
   -7.7105    0.4309    0.0000 C   0  0  0  0  0  0  0  0  0  0  0  0
   -6.9960    0.0184    0.0000 C   0  0  0  0  0  0  0  0  0  0  0  0
   -6.2815    0.4309    0.0000 C   0  0  0  0  0  0  0  0  0  0  0  0
   -5.5671    0.0184    0.0000 C   0  0  0  0  0  0  0  0  0  0  0  0
   -5.5671   -0.8066    0.0000 C   0  0  0  0  0  0  0  0  0  0  0  0
   -4.8526    0.4309    0.0000 C   0  0  0  0  0  0  0  0  0  0  0  0
   -4.1381    0.0184    0.0000 C   0  0  0  0  0  0  0  0  0  0  0  0
   -3.4237    0.4309    0.0000 C   0  0  0  0  0  0  0  0  0  0  0  0
   -2.7092    0.0184    0.0000 C   0  0  0  0  0  0  0  0  0  0  0  0
   -2.7092   -0.8066    0.0000 C   0  0  0  0  0  0  0  0  0  0  0  0
   -1.9947    0.4309    0.0000 C   0  0  0  0  0  0  0  0  0  0  0  0
   -1.2802    0.0184    0.0000 C   0  0  0  0  0  0  0  0  0  0  0  0
   -0.5658    0.4309    0.0000 C   0  0  0  0  0  0  0  0  0  0  0  0
   -0.5658    1.2559    0.0000 C   0  0  0  0  0  0  0  0  0  0  0  0
   -1.3782    1.1126    0.0000 C   0  0  0  0  0  0  0  0  0  0  0  0
    0.2467    1.1126    0.0000 C   0  0  0  0  0  0  0  0  0  0  0  0
    0.7770    1.7446    0.0000 C   0  0  0  0  0  0  0  0  0  0  0  0
    0.4948    2.5199    0.0000 C   0  0  0  0  0  0  0  0  0  0  0  0
   -0.3176    2.6631    0.0000 C   0  0  0  0  0  0  0  0  0  0  0  0
   -0.5998    3.4384    0.0000 C   0  0  0  0  0  0  0  0  0  0  0  0
   -1.4123    3.5816    0.0000 C   0  0  0  0  0  0  0  0  0  0  0  0
   -0.0695    4.0704    0.0000 C   0  0  0  0  0  0  0  0  0  0  0  0
   -0.3517    4.8456    0.0000 C   0  0  0  0  0  0  0  0  0  0  0  0
    0.7430    3.9271    0.0000 C   0  0  0  0  0  0  0  0  0  0  0  0
    1.2733    4.5591    0.0000 O   0  0  0  0  0  0  0  0  0  0  0  0
    1.0251    3.1519    0.0000 C   0  0  0  0  0  0  0  0  0  0  0  0
    1.8376    3.0086    0.0000 C   0  0  0  0  0  0  0  0  0  0  0  0
   -0.8479    2.0311    0.0000 O   0  0  0  0  0  0  0  0  0  0  0  0
  1  2  1  0  0  0  0
  2  3  1  0  0  0  0
  2  4  1  0  0  0  0
  4  5  1  0  0  0  0
  5  6  1  0  0  0  0
  6  7  1  0  0  0  0
  7  8  1  0  0  0  0
  7  9  1  0  0  0  0
  9 10  1  0  0  0  0
 10 11  1  0  0  0  0
 11 12  1  0  0  0  0
 12 13  1  0  0  0  0
 12 14  1  0  0  0  0
 14 15  1  0  0  0  0
 15 16  1  0  0  0  0
 16 17  1  0  0  0  0
 17 18  1  0  0  0  0
 19 17  1  0  0  0  0
 20 19  1  0  0  0  0
 21 20  1  0  0  0  0
 21 22  2  0  0  0  0
 22 23  1  0  0  0  0
 23 24  1  0  0  0  0
 23 25  2  0  0  0  0
 25 26  1  0  0  0  0
 25 27  1  0  0  0  0
 27 28  1  0  0  0  0
 27 29  2  0  0  0  0
 29 21  1  0  0  0  0
 29 30  1  0  0  0  0
 31 22  1  0  0  0  0
 17 31  1  0  0  0  0
M  END
> <RowID>
1321

> <Original_SMILES>
CC(C)CCCC(C)CCCC(C)CCCC1(C)CCC2=C(O1)C(C)=C(C)C(O)=C2C

> <Canonical_QSARr>
CC(C)CCCC(C)CCCC(C)CCCC1(C)CCC2=C(O1)C(C)=C(C)C(O)=C2C

> <InChI_Code_QSARr>
InChI=1S/C29H50O2/c1-20(2)12-9-13-21(3)14-10-15-22(4)16-11-18-29(8)19-17-26-25(7)27(30)23(5)24(6)28(26)31-29/h20-22,30H,9-19H2,1-8H3

> <InChI Key_QSARr>
GVJHHUAWPYXKBD-UHFFFAOYSA-N

> <Salt_Solvent>


> <Salt_Solvent_ID>
0

> <Number of connected components>
1

$$$$
Molecule_1322
  Mrv2316 01072400032D          

 19 19  0  0  0  0            999 V2000
   -0.0000   -4.1250    0.0000 C   0  0  0  0  0  0  0  0  0  0  0  0
   -0.0000   -3.3000    0.0000 N   0  0  0  0  0  0  0  0  0  0  0  0
   -0.7145   -2.8875    0.0000 S   0  0  0  0  0  0  0  0  0  0  0  0
   -1.4289   -2.4750    0.0000 C   0  0  0  0  0  0  0  0  0  0  0  0
   -1.4289   -1.6500    0.0000 C   0  0  0  0  0  0  0  0  0  0  0  0
   -2.1434   -1.2375    0.0000 C   0  0  0  0  0  0  0  0  0  0  0  0
   -2.8579   -1.6500    0.0000 C   0  0  0  0  0  0  0  0  0  0  0  0
   -2.8579   -2.4750    0.0000 C   0  0  0  0  0  0  0  0  0  0  0  0
   -2.1434   -2.8875    0.0000 C   0  0  0  0  0  0  0  0  0  0  0  0
   -1.1270   -3.6020    0.0000 O   0  0  0  0  0  0  0  0  0  0  0  0
   -0.3020   -2.1730    0.0000 O   0  0  0  0  0  0  0  0  0  0  0  0
    0.7145   -2.8875    0.0000 C   0  0  0  0  0  0  0  0  0  0  0  0
    1.4289   -3.3000    0.0000 C   0  0  0  0  0  0  0  0  0  0  0  0
    2.1434   -2.8875    0.0000 C   0  0  0  0  0  0  0  0  0  0  0  0
    2.8579   -3.3000    0.0000 C   0  0  0  0  0  0  0  0  0  0  0  0
    3.5724   -2.8875    0.0000 C   0  0  0  0  0  0  0  0  0  0  0  0
    4.2868   -3.3000    0.0000 C   0  0  0  0  0  0  0  0  0  0  0  0
    5.0013   -2.8875    0.0000 O   0  0  0  0  0  0  0  0  0  0  0  0
    4.2868   -4.1250    0.0000 O   0  0  0  0  0  0  0  0  0  0  0  0
  1  2  1  0  0  0  0
  2  3  1  0  0  0  0
  3  4  1  0  0  0  0
  5  4  2  0  0  0  0
  6  5  1  0  0  0  0
  7  6  2  0  0  0  0
  8  7  1  0  0  0  0
  9  8  2  0  0  0  0
  4  9  1  0  0  0  0
  3 10  2  0  0  0  0
  3 11  2  0  0  0  0
  2 12  1  0  0  0  0
 12 13  1  0  0  0  0
 13 14  1  0  0  0  0
 14 15  1  0  0  0  0
 15 16  1  0  0  0  0
 16 17  1  0  0  0  0
 17 18  2  0  0  0  0
 17 19  1  0  0  0  0
M  END
> <RowID>
1322

> <Original_SMILES>
CN(CCCCCC(O)=O)S(=O)(=O)C1C=CC=CC=1.OCCN(CCO)CCO

> <Canonical_QSARr>
CN(CCCCCC(O)=O)S(=O)(=O)C1C=CC=CC=1

> <InChI_Code_QSARr>
InChI=1S/C13H19NO4S/c1-14(11-7-3-6-10-13(15)16)19(17,18)12-8-4-2-5-9-12/h2,4-5,8-9H,3,6-7,10-11H2,1H3,(H,15,16)

> <InChI Key_QSARr>
ASJPRZHJNRBKTI-UHFFFAOYSA-N

> <Salt_Solvent>
OCCN(CCO)CCO

> <Salt_Solvent_ID>
3118

> <Number of connected components>
2

$$$$
Molecule_1323
  Mrv2316 01072400032D          

 25 24  0  0  0  0            999 V2000
   -1.6717    3.9849    0.0000 C   0  0  0  0  0  0  0  0  0  0  0  0
   -0.9572    3.5724    0.0000 C   0  0  0  0  0  0  0  0  0  0  0  0
   -0.2427    3.9849    0.0000 C   0  0  0  0  0  0  0  0  0  0  0  0
    0.4717    3.5724    0.0000 C   0  0  0  0  0  0  0  0  0  0  0  0
    1.1862    3.9849    0.0000 C   0  0  0  0  0  0  0  0  0  0  0  0
    1.9007    3.5724    0.0000 C   0  0  0  0  0  0  0  0  0  0  0  0
    2.6152    3.9849    0.0000 C   0  0  0  0  0  0  0  0  0  0  0  0
    3.3296    3.5724    0.0000 C   0  0  0  0  0  0  0  0  0  0  0  0
    4.0441    3.9849    0.0000 C   0  0  0  0  0  0  0  0  0  0  0  0
    4.7586    3.5724    0.0000 C   0  0  0  0  0  0  0  0  0  0  0  0
    5.4730    3.9849    0.0000 C   0  0  0  0  0  0  0  0  0  0  0  0
    6.1875    3.5724    0.0000 C   0  0  0  0  0  0  0  0  0  0  0  0
    6.9020    3.9849    0.0000 C   0  0  0  0  0  0  0  0  0  0  0  0
    7.6164    3.5724    0.0000 C   0  0  0  0  0  0  0  0  0  0  0  0
    8.3309    3.9849    0.0000 C   0  0  0  0  0  0  0  0  0  0  0  0
    9.0454    3.5724    0.0000 C   0  0  0  0  0  0  0  0  0  0  0  0
    9.7599    3.9849    0.0000 C   0  0  0  0  0  0  0  0  0  0  0  0
   10.4743    3.5724    0.0000 C   0  0  0  0  0  0  0  0  0  0  0  0
   10.4743    2.7474    0.0000 O   0  0  0  0  0  0  0  0  0  0  0  0
   11.1888    3.9849    0.0000 O   0  0  0  0  0  0  0  0  0  0  0  0
   11.9033    3.5724    0.0000 C   0  0  0  0  0  0  0  0  0  0  0  0
   12.6177    3.9849    0.0000 C   0  0  0  0  0  0  0  0  0  0  0  0
   13.3322    3.5724    0.0000 C   0  0  0  0  0  0  0  0  0  0  0  0
   14.0467    3.9849    0.0000 C   0  0  0  0  0  0  0  0  0  0  0  0
   13.3322    2.7474    0.0000 C   0  0  0  0  0  0  0  0  0  0  0  0
  1  2  1  0  0  0  0
  2  3  1  0  0  0  0
  3  4  1  0  0  0  0
  4  5  1  0  0  0  0
  5  6  1  0  0  0  0
  6  7  1  0  0  0  0
  7  8  1  0  0  0  0
  9  8  1  4  0  0  0
  9 10  2  0  0  0  0
 10 11  1  0  0  0  0
 11 12  1  0  0  0  0
 12 13  1  0  0  0  0
 13 14  1  0  0  0  0
 14 15  1  0  0  0  0
 15 16  1  0  0  0  0
 16 17  1  0  0  0  0
 17 18  1  0  0  0  0
 18 19  2  0  0  0  0
 18 20  1  0  0  0  0
 20 21  1  0  0  0  0
 21 22  1  0  0  0  0
 22 23  1  0  0  0  0
 23 24  1  0  0  0  0
 23 25  1  0  0  0  0
M  END
> <RowID>
1323

> <Original_SMILES>
CCCCCCCCC=CCCCCCCCC(=O)OCCC(C)C

> <Canonical_QSARr>
CCCCCCCCC=CCCCCCCCC(=O)OCCC(C)C

> <InChI_Code_QSARr>
InChI=1S/C23H44O2/c1-4-5-6-7-8-9-10-11-12-13-14-15-16-17-18-19-23(24)25-21-20-22(2)3/h11-12,22H,4-10,13-21H2,1-3H3

> <InChI Key_QSARr>
PHUSOTFVZQDLMC-UHFFFAOYSA-N

> <Salt_Solvent>


> <Salt_Solvent_ID>
0

> <Number of connected components>
1

$$$$
Molecule_1324
  Mrv2316 01072400032D          

  7  6  0  0  0  0            999 V2000
    1.7605    1.8414    0.0000 O   0  0  0  0  0  0  0  0  0  0  0  0
    2.4750    1.4289    0.0000 C   0  0  0  0  0  0  0  0  0  0  0  0
    3.1895    1.8414    0.0000 C   0  0  0  0  0  0  0  0  0  0  0  0
    3.9039    1.4289    0.0000 C   0  0  0  0  0  0  0  0  0  0  0  0
    4.6184    1.8414    0.0000 C   0  0  0  0  0  0  0  0  0  0  0  0
    5.3329    1.4289    0.0000 C   0  0  0  0  0  0  0  0  0  0  0  0
    6.0474    1.8414    0.0000 O   0  0  0  0  0  0  0  0  0  0  0  0
  1  2  1  0  0  0  0
  2  3  1  0  0  0  0
  3  4  1  0  0  0  0
  4  5  1  0  0  0  0
  5  6  1  0  0  0  0
  6  7  1  0  0  0  0
M  END
> <RowID>
1324

> <Original_SMILES>
OCCCCCO

> <Canonical_QSARr>
OCCCCCO

> <InChI_Code_QSARr>
InChI=1S/C5H12O2/c6-4-2-1-3-5-7/h6-7H,1-5H2

> <InChI Key_QSARr>
ALQSHHUCVQOPAS-UHFFFAOYSA-N

> <Salt_Solvent>


> <Salt_Solvent_ID>
0

> <Number of connected components>
1

$$$$
Molecule_1325
  Mrv2316 01072400032D          

 11 11  0  0  0  0            999 V2000
    0.6725   -3.1642    0.0000 C   0  0  0  0  0  0  0  0  0  0  0  0
    1.3870   -2.7517    0.0000 C   0  0  0  0  0  0  0  0  0  0  0  0
    2.1015   -3.1642    0.0000 C   0  0  0  0  0  0  0  0  0  0  0  0
    2.8159   -2.7517    0.0000 C   0  0  0  0  0  0  0  0  0  0  0  0
    3.5304   -3.1642    0.0000 C   0  0  0  0  0  0  0  0  0  0  0  0
    4.2449   -2.7517    0.0000 C   0  0  0  0  0  0  0  0  0  0  0  0
    4.9986   -3.0873    0.0000 C   0  0  0  0  0  0  0  0  0  0  0  0
    5.5506   -2.4742    0.0000 C   0  0  0  0  0  0  0  0  0  0  0  0
    5.1381   -1.7597    0.0000 C   0  0  0  0  0  0  0  0  0  0  0  0
    4.3311   -1.9313    0.0000 C   0  0  0  0  0  0  0  0  0  0  0  0
    3.7180   -1.3792    0.0000 O   0  0  0  0  0  0  0  0  0  0  0  0
  1  2  1  0  0  0  0
  2  3  1  0  0  0  0
  3  4  1  0  0  0  0
  4  5  1  0  0  0  0
  5  6  1  0  0  0  0
  7  6  2  0  0  0  0
  8  7  1  0  0  0  0
  9  8  1  0  0  0  0
 10  9  1  0  0  0  0
  6 10  1  0  0  0  0
 10 11  2  0  0  0  0
M  END
> <RowID>
1325

> <Original_SMILES>
CCCCCC1=CCCC1=O

> <Canonical_QSARr>
CCCCCC1=CCCC1=O

> <InChI_Code_QSARr>
InChI=1S/C10H16O/c1-2-3-4-6-9-7-5-8-10(9)11/h7H,2-6,8H2,1H3

> <InChI Key_QSARr>
ILHZVKAXFCDFMT-UHFFFAOYSA-N

> <Salt_Solvent>


> <Salt_Solvent_ID>
0

> <Number of connected components>
1

$$$$
Molecule_1326
  Mrv2316 01072400032D          

 13 13  0  0  0  0            999 V2000
    3.5724   -5.3625    0.0000 C   0  0  0  0  0  0  0  0  0  0  0  0
    3.5724   -4.5375    0.0000 C   0  0  0  0  0  0  0  0  0  0  0  0
    2.8579   -4.1250    0.0000 C   0  0  0  0  0  0  0  0  0  0  0  0
    2.1434   -4.5375    0.0000 C   0  0  0  0  0  0  0  0  0  0  0  0
    1.4289   -4.1250    0.0000 O   0  0  0  0  0  0  0  0  0  0  0  0
    4.2868   -4.1250    0.0000 C   0  0  0  0  0  0  0  0  0  0  0  0
    5.0013   -4.5375    0.0000 C   0  0  0  0  0  0  0  0  0  0  0  0
    5.7158   -4.1250    0.0000 C   0  0  0  0  0  0  0  0  0  0  0  0
    6.4302   -4.5375    0.0000 C   0  0  0  0  0  0  0  0  0  0  0  0
    7.1447   -4.1250    0.0000 C   0  0  0  0  0  0  0  0  0  0  0  0
    7.1447   -3.3000    0.0000 C   0  0  0  0  0  0  0  0  0  0  0  0
    6.4302   -2.8875    0.0000 C   0  0  0  0  0  0  0  0  0  0  0  0
    5.7158   -3.3000    0.0000 C   0  0  0  0  0  0  0  0  0  0  0  0
  1  2  1  0  0  0  0
  2  3  1  0  0  0  0
  3  4  1  0  0  0  0
  4  5  1  0  0  0  0
  2  6  1  0  0  0  0
  6  7  1  0  0  0  0
  7  8  1  0  0  0  0
  9  8  1  0  0  0  0
 10  9  2  0  0  0  0
 11 10  1  0  0  0  0
 12 11  2  0  0  0  0
 13 12  1  0  0  0  0
  8 13  2  0  0  0  0
M  END
> <RowID>
1326

> <Original_SMILES>
CC(CCO)CCC1C=CC=CC=1

> <Canonical_QSARr>
CC(CCO)CCC1C=CC=CC=1

> <InChI_Code_QSARr>
InChI=1S/C12H18O/c1-11(9-10-13)7-8-12-5-3-2-4-6-12/h2-6,11,13H,7-10H2,1H3

> <InChI Key_QSARr>
OXYRENDGHPGWKV-UHFFFAOYSA-N

> <Salt_Solvent>


> <Salt_Solvent_ID>
0

> <Number of connected components>
1

$$$$
Molecule_1327
  Mrv2316 01072400032D          

 20 19  0  0  0  0            999 V2000
    6.7105    4.6993    0.0000 C   0  0  0  0  0  0  0  0  0  0  0  0
    7.4250    4.2868    0.0000 C   0  0  0  0  0  0  0  0  0  0  0  0
    8.1395    4.6993    0.0000 C   0  0  0  0  0  0  0  0  0  0  0  0
    8.8539    4.2868    0.0000 C   0  0  0  0  0  0  0  0  0  0  0  0
    9.5684    4.6993    0.0000 C   0  0  0  0  0  0  0  0  0  0  0  0
   10.2829    4.2868    0.0000 C   0  0  0  0  0  0  0  0  0  0  0  0
   10.9973    4.6993    0.0000 C   0  0  0  0  0  0  0  0  0  0  0  0
   11.7118    4.2868    0.0000 C   0  0  0  0  0  0  0  0  0  0  0  0
   12.4263    4.6993    0.0000 C   0  0  0  0  0  0  0  0  0  0  0  0
   13.1407    4.2868    0.0000 C   0  0  0  0  0  0  0  0  0  0  0  0
   13.8552    4.6993    0.0000 C   0  0  0  0  0  0  0  0  0  0  0  0
   14.5697    4.2868    0.0000 C   0  0  0  0  0  0  0  0  0  0  0  0
   15.2842    4.6993    0.0000 C   0  0  0  0  0  0  0  0  0  0  0  0
   15.9986    4.2868    0.0000 C   0  0  0  0  0  0  0  0  0  0  0  0
   16.7131    4.6993    0.0000 C   0  0  0  0  0  0  0  0  0  0  0  0
   17.4276    4.2868    0.0000 C   0  0  0  0  0  0  0  0  0  0  0  0
   18.1420    4.6993    0.0000 N   0  3  0  0  0  0  0  0  0  0  0  0
   18.8565    5.1118    0.0000 C   0  0  0  0  0  0  0  0  0  0  0  0
   18.5545    3.9848    0.0000 C   0  0  0  0  0  0  0  0  0  0  0  0
   17.7295    5.4138    0.0000 C   0  0  0  0  0  0  0  0  0  0  0  0
  1  2  1  0  0  0  0
  2  3  1  0  0  0  0
  3  4  1  0  0  0  0
  4  5  1  0  0  0  0
  5  6  1  0  0  0  0
  6  7  1  0  0  0  0
  7  8  1  0  0  0  0
  8  9  1  0  0  0  0
  9 10  1  0  0  0  0
 10 11  1  0  0  0  0
 11 12  1  0  0  0  0
 12 13  1  0  0  0  0
 13 14  1  0  0  0  0
 14 15  1  0  0  0  0
 15 16  1  0  0  0  0
 16 17  1  0  0  0  0
 17 18  1  0  0  0  0
 17 19  1  0  0  0  0
 17 20  1  0  0  0  0
M  CHG  1  17   1
M  END
> <RowID>
1327

> <Original_SMILES>
[Br-].CCCCCCCCCCCCCCCC[N+](C)(C)C

> <Canonical_QSARr>
CCCCCCCCCCCCCCCC[N+](C)(C)C

> <InChI_Code_QSARr>
InChI=1S/C19H42N/c1-5-6-7-8-9-10-11-12-13-14-15-16-17-18-19-20(2,3)4/h5-19H2,1-4H3/q+1

> <InChI Key_QSARr>
RLGQACBPNDBWTB-UHFFFAOYSA-N

> <Salt_Solvent>
[Br-]

> <Salt_Solvent_ID>
350

> <Number of connected components>
2

$$$$
Molecule_1328
  Mrv2316 01072400032D          

 13 13  0  0  0  0            999 V2000
    3.2976    1.3962    0.0000 O   0  0  0  0  0  0  0  0  0  0  0  0
    2.5831    1.8087    0.0000 C   0  0  0  0  0  0  0  0  0  0  0  0
    2.5831    2.6337    0.0000 O   0  0  0  0  0  0  0  0  0  0  0  0
    1.8686    1.3962    0.0000 C   0  0  0  0  0  0  0  0  0  0  0  0
    1.1541    1.8087    0.0000 O   0  0  0  0  0  0  0  0  0  0  0  0
    0.4397    1.3962    0.0000 C   0  0  0  0  0  0  0  0  0  0  0  0
   -0.2748    1.8087    0.0000 C   0  0  0  0  0  0  0  0  0  0  0  0
   -0.2748    2.6337    0.0000 Cl  0  0  0  0  0  0  0  0  0  0  0  0
   -0.9893    1.3962    0.0000 C   0  0  0  0  0  0  0  0  0  0  0  0
   -0.9893    0.5712    0.0000 C   0  0  0  0  0  0  0  0  0  0  0  0
   -1.7037    0.1587    0.0000 Cl  0  0  0  0  0  0  0  0  0  0  0  0
   -0.2748    0.1587    0.0000 C   0  0  0  0  0  0  0  0  0  0  0  0
    0.4397    0.5712    0.0000 C   0  0  0  0  0  0  0  0  0  0  0  0
  1  2  1  0  0  0  0
  2  3  2  0  0  0  0
  2  4  1  0  0  0  0
  4  5  1  0  0  0  0
  5  6  1  0  0  0  0
  7  6  2  0  0  0  0
  7  8  1  0  0  0  0
  9  7  1  0  0  0  0
 10  9  2  0  0  0  0
 10 11  1  0  0  0  0
 12 10  1  0  0  0  0
 13 12  2  0  0  0  0
  6 13  1  0  0  0  0
M  END
> <RowID>
1328

> <Original_SMILES>
[Na+].[O-]C(=O)COC1C=CC(Cl)=CC=1Cl

> <Canonical_QSARr>
OC(=O)COC1C=CC(Cl)=CC=1Cl

> <InChI_Code_QSARr>
InChI=1S/C8H6Cl2O3/c9-5-1-2-7(6(10)3-5)13-4-8(11)12/h1-3H,4H2,(H,11,12)

> <InChI Key_QSARr>
OVSKIKFHRZPJSS-UHFFFAOYSA-N

> <Salt_Solvent>
[Na+]

> <Salt_Solvent_ID>
110

> <Number of connected components>
2

$$$$
Molecule_1329
  Mrv2316 01072400032D          

  8  7  0  0  0  0            999 V2000
   -0.1914    0.7145    0.0000 C   0  0  0  0  0  0  0  0  0  0  0  0
    0.5230    1.1270    0.0000 C   0  0  0  0  0  0  0  0  0  0  0  0
    0.5230    1.9520    0.0000 C   0  0  0  0  0  0  0  0  0  0  0  0
    1.2375    0.7145    0.0000 C   0  0  0  0  0  0  0  0  0  0  0  0
    1.2375   -0.1105    0.0000 O   0  0  0  0  0  0  0  0  0  0  0  0
    1.9520    1.1270    0.0000 N   0  0  0  0  0  0  0  0  0  0  0  0
    2.6664    0.7145    0.0000 C   0  0  0  0  0  0  0  0  0  0  0  0
    3.3809    1.1270    0.0000 O   0  0  0  0  0  0  0  0  0  0  0  0
  1  2  1  0  0  0  0
  2  3  2  0  0  0  0
  2  4  1  0  0  0  0
  4  5  2  0  0  0  0
  4  6  1  0  0  0  0
  6  7  1  0  0  0  0
  7  8  1  0  0  0  0
M  END
> <RowID>
1329

> <Original_SMILES>
CC(=C)C(=O)NCO

> <Canonical_QSARr>
CC(=C)C(=O)NCO

> <InChI_Code_QSARr>
InChI=1S/C5H9NO2/c1-4(2)5(8)6-3-7/h7H,1,3H2,2H3,(H,6,8)

> <InChI Key_QSARr>
DNTMQTKDNSEIFO-UHFFFAOYSA-N

> <Salt_Solvent>


> <Salt_Solvent_ID>
0

> <Number of connected components>
1

$$$$
Molecule_1330
  Mrv2316 01072400032D          

 30 29  0  0  0  0            999 V2000
   10.9475    7.1452    0.0000 C   0  0  0  0  0  0  0  0  0  0  0  0
   11.6620    7.5577    0.0000 C   0  0  0  0  0  0  0  0  0  0  0  0
   12.3765    7.1452    0.0000 C   0  0  0  0  0  0  0  0  0  0  0  0
   13.0909    7.5577    0.0000 C   0  0  0  0  0  0  0  0  0  0  0  0
   13.8054    7.1452    0.0000 C   0  0  0  0  0  0  0  0  0  0  0  0
   14.5199    7.5577    0.0000 C   0  0  0  0  0  0  0  0  0  0  0  0
   15.2343    7.1452    0.0000 O   0  0  0  0  0  0  0  0  0  0  0  0
   15.9488    7.5577    0.0000 C   0  0  0  0  0  0  0  0  0  0  0  0
   15.9488    8.3827    0.0000 O   0  0  0  0  0  0  0  0  0  0  0  0
   16.6633    7.1452    0.0000 C   0  0  0  0  0  0  0  0  0  0  0  0
   17.3778    7.5577    0.0000 C   0  0  0  0  0  0  0  0  0  0  0  0
   18.0922    7.1452    0.0000 C   0  0  0  0  0  0  0  0  0  0  0  0
   18.8067    7.5577    0.0000 C   0  0  0  0  0  0  0  0  0  0  0  0
   19.5212    7.1452    0.0000 C   0  0  0  0  0  0  0  0  0  0  0  0
   20.2356    7.5577    0.0000 C   0  0  0  0  0  0  0  0  0  0  0  0
   20.9501    7.1452    0.0000 C   0  0  0  0  0  0  0  0  0  0  0  0
   21.6646    7.5577    0.0000 C   0  0  0  0  0  0  0  0  0  0  0  0
   22.3791    7.1452    0.0000 C   0  0  0  0  0  0  0  0  0  0  0  0
   22.3791    6.3202    0.0000 O   0  0  0  0  0  0  0  0  0  0  0  0
   23.0935    7.5577    0.0000 O   0  0  0  0  0  0  0  0  0  0  0  0
   23.8080    7.1452    0.0000 C   0  0  0  0  0  0  0  0  0  0  0  0
   24.5225    7.5577    0.0000 C   0  0  0  0  0  0  0  0  0  0  0  0
   25.2369    7.1452    0.0000 C   0  0  0  0  0  0  0  0  0  0  0  0
   25.9514    7.5577    0.0000 C   0  0  0  0  0  0  0  0  0  0  0  0
   26.6659    7.1452    0.0000 C   0  0  0  0  0  0  0  0  0  0  0  0
   27.3803    7.5577    0.0000 C   0  0  0  0  0  0  0  0  0  0  0  0
   24.5225    8.3827    0.0000 C   0  0  0  0  0  0  0  0  0  0  0  0
   25.2369    8.7952    0.0000 C   0  0  0  0  0  0  0  0  0  0  0  0
   13.8054    6.3202    0.0000 C   0  0  0  0  0  0  0  0  0  0  0  0
   14.5199    5.9077    0.0000 C   0  0  0  0  0  0  0  0  0  0  0  0
  1  2  1  0  0  0  0
  2  3  1  0  0  0  0
  3  4  1  0  0  0  0
  4  5  1  0  0  0  0
  5  6  1  0  0  0  0
  6  7  1  0  0  0  0
  7  8  1  0  0  0  0
  8  9  2  0  0  0  0
  8 10  1  0  0  0  0
 10 11  1  0  0  0  0
 11 12  1  0  0  0  0
 12 13  1  0  0  0  0
 13 14  1  0  0  0  0
 14 15  1  0  0  0  0
 15 16  1  0  0  0  0
 16 17  1  0  0  0  0
 17 18  1  0  0  0  0
 18 19  2  0  0  0  0
 18 20  1  0  0  0  0
 20 21  1  0  0  0  0
 21 22  1  0  0  0  0
 22 23  1  0  0  0  0
 23 24  1  0  0  0  0
 24 25  1  0  0  0  0
 25 26  1  0  0  0  0
 22 27  1  0  0  0  0
 27 28  1  0  0  0  0
  5 29  1  0  0  0  0
 29 30  1  0  0  0  0
M  END
> <RowID>
1330

> <Original_SMILES>
CCCCC(COC(=O)CCCCCCCCC(=O)OCC(CCCC)CC)CC

> <Canonical_QSARr>
CCCCC(COC(=O)CCCCCCCCC(=O)OCC(CCCC)CC)CC

> <InChI_Code_QSARr>
InChI=1S/C26H50O4/c1-5-9-17-23(7-3)21-29-25(27)19-15-13-11-12-14-16-20-26(28)30-22-24(8-4)18-10-6-2/h23-24H,5-22H2,1-4H3

> <InChI Key_QSARr>
VJHINFRRDQUWOJ-UHFFFAOYSA-N

> <Salt_Solvent>


> <Salt_Solvent_ID>
0

> <Number of connected components>
1

$$$$
Molecule_1331
  Mrv2316 01072400032D          

  5  4  0  0  0  0            999 V2000
    2.4750   -1.4289    0.0000 C   0  0  0  0  0  0  0  0  0  0  0  0
    2.0625   -0.7145    0.0000 C   0  0  0  0  0  0  0  0  0  0  0  0
    1.2375   -0.7145    0.0000 C   0  0  0  0  0  0  0  0  0  0  0  0
    0.8250   -0.0000    0.0000 C   0  0  0  0  0  0  0  0  0  0  0  0
    0.0000   -0.0000    0.0000 C   0  0  0  0  0  0  0  0  0  0  0  0
  1  2  1  0  0  0  0
  2  3  1  0  0  0  0
  3  4  1  0  0  0  0
  4  5  2  0  0  0  0
M  END
> <RowID>
1331

> <Original_SMILES>
CCCC=C

> <Canonical_QSARr>
CCCC=C

> <InChI_Code_QSARr>
InChI=1S/C5H10/c1-3-5-4-2/h3H,1,4-5H2,2H3

> <InChI Key_QSARr>
YWAKXRMUMFPDSH-UHFFFAOYSA-N

> <Salt_Solvent>


> <Salt_Solvent_ID>
0

> <Number of connected components>
1

$$$$
Molecule_1332
  Mrv2316 01072400032D          

 33 38  0  0  0  0            999 V2000
    0.0759   -0.7782    0.0000 O   0  0  0  0  0  0  0  0  0  0  0  0
    0.9009   -0.7782    0.0000 C   0  0  0  0  0  0  0  0  0  0  0  0
    1.3858   -0.1108    0.0000 O   0  0  0  0  0  0  0  0  0  0  0  0
    2.1704   -0.3657    0.0000 C   0  0  0  0  0  0  0  0  0  0  0  0
    2.8849    0.0468    0.0000 C   0  0  0  0  0  0  0  0  0  0  0  0
    3.5994   -0.3657    0.0000 C   0  0  0  0  0  0  0  0  0  0  0  0
    4.3840   -0.1108    0.0000 C   0  0  0  0  0  0  0  0  0  0  0  0
    4.6389    0.6738    0.0000 C   0  0  0  0  0  0  0  0  0  0  0  0
    5.4459    0.8454    0.0000 C   0  0  0  0  0  0  0  0  0  0  0  0
    5.7008    1.6300    0.0000 C   0  0  0  0  0  0  0  0  0  0  0  0
    5.1488    2.2431    0.0000 C   0  0  0  0  0  0  0  0  0  0  0  0
    5.4038    3.0277    0.0000 O   0  0  0  0  0  0  0  0  0  0  0  0
    4.8517    3.6408    0.0000 C   0  0  0  0  0  0  0  0  0  0  0  0
    5.1067    4.4254    0.0000 C   0  0  0  0  0  0  0  0  0  0  0  0
    5.8913    4.6804    0.0000 C   0  0  0  0  0  0  0  0  0  0  0  0
    5.8913    5.5054    0.0000 C   0  0  0  0  0  0  0  0  0  0  0  0
    5.1067    5.7603    0.0000 C   0  0  0  0  0  0  0  0  0  0  0  0
    4.6217    5.0929    0.0000 O   0  0  0  0  0  0  0  0  0  0  0  0
    4.3418    2.0715    0.0000 C   0  0  0  0  0  0  0  0  0  0  0  0
    4.0869    1.2869    0.0000 C   0  0  0  0  0  0  0  0  0  0  0  0
    4.8689   -0.7782    0.0000 C   0  0  0  0  0  0  0  0  0  0  0  0
    5.6939   -0.7782    0.0000 O   0  0  0  0  0  0  0  0  0  0  0  0
    4.3840   -1.4457    0.0000 O   0  0  0  0  0  0  0  0  0  0  0  0
    3.5994   -1.1907    0.0000 C   0  0  0  0  0  0  0  0  0  0  0  0
    2.8849   -1.6032    0.0000 C   0  0  0  0  0  0  0  0  0  0  0  0
    2.1704   -1.1907    0.0000 C   0  0  0  0  0  0  0  0  0  0  0  0
    1.3858   -1.4457    0.0000 C   0  0  0  0  0  0  0  0  0  0  0  0
    1.1309   -2.2303    0.0000 C   0  0  0  0  0  0  0  0  0  0  0  0
    0.3239   -2.4018    0.0000 C   0  0  0  0  0  0  0  0  0  0  0  0
    0.0690   -3.1864    0.0000 C   0  0  0  0  0  0  0  0  0  0  0  0
    0.6210   -3.7995    0.0000 C   0  0  0  0  0  0  0  0  0  0  0  0
    1.4280   -3.6280    0.0000 C   0  0  0  0  0  0  0  0  0  0  0  0
    1.6829   -2.8434    0.0000 C   0  0  0  0  0  0  0  0  0  0  0  0
  1  2  2  0  0  0  0
  3  2  1  0  0  0  0
  4  3  1  0  0  0  0
  4  5  2  0  0  0  0
  5  6  1  0  0  0  0
  7  6  2  0  0  0  0
  7  8  1  0  0  0  0
  9  8  1  0  0  0  0
 10  9  2  0  0  0  0
 11 10  1  0  0  0  0
 11 12  1  0  0  0  0
 12 13  1  0  0  0  0
 13 14  1  0  0  0  0
 15 14  1  0  0  0  0
 16 15  1  0  0  0  0
 17 16  1  0  0  0  0
 18 17  1  0  0  0  0
 14 18  1  0  0  0  0
 19 11  2  0  0  0  0
 20 19  1  0  0  0  0
  8 20  2  0  0  0  0
 21  7  1  0  0  0  0
 21 22  2  0  0  0  0
 23 21  1  0  0  0  0
 24 23  1  0  0  0  0
  6 24  1  0  0  0  0
 24 25  2  0  0  0  0
 25 26  1  0  0  0  0
 26  4  1  0  0  0  0
 27 26  2  0  0  0  0
  2 27  1  0  0  0  0
 27 28  1  0  0  0  0
 29 28  1  0  0  0  0
 30 29  2  0  0  0  0
 31 30  1  0  0  0  0
 32 31  2  0  0  0  0
 33 32  1  0  0  0  0
 28 33  2  0  0  0  0
M  END
> <RowID>
1332

> <Original_SMILES>
O=C1OC2=CC3=C(C4C=CC(=CC=4)OCC4CCCO4)C(=O)OC3=CC2=C1C1C=CC=CC=1

> <Canonical_QSARr>
O=C1OC2=CC3=C(C4C=CC(=CC=4)OCC4CCCO4)C(=O)OC3=CC2=C1C1C=CC=CC=1

> <InChI_Code_QSARr>
InChI=1S/C27H20O6/c28-26-24(16-5-2-1-3-6-16)20-13-23-21(14-22(20)32-26)25(27(29)33-23)17-8-10-18(11-9-17)31-15-19-7-4-12-30-19/h1-3,5-6,8-11,13-14,19H,4,7,12,15H2

> <InChI Key_QSARr>
PLILWZJQAUTHSW-UHFFFAOYSA-N

> <Salt_Solvent>


> <Salt_Solvent_ID>
0

> <Number of connected components>
1

$$$$
Molecule_1333
  Mrv2316 01072400032D          

 23 25  0  0  0  0            999 V2000
    0.2796   -6.1875    0.0000 C   0  0  0  0  0  0  0  0  0  0  0  0
    0.2796   -5.3625    0.0000 C   0  0  0  0  0  0  0  0  0  0  0  0
    0.9940   -4.9500    0.0000 C   0  0  0  0  0  0  0  0  0  0  0  0
    0.9940   -4.1250    0.0000 C   0  0  0  0  0  0  0  0  0  0  0  0
    1.7085   -3.7125    0.0000 N   0  3  0  0  0  0  0  0  0  0  0  0
    1.7085   -2.8875    0.0000 O   0  5  0  0  0  0  0  0  0  0  0  0
    2.4230   -4.1250    0.0000 O   0  0  0  0  0  0  0  0  0  0  0  0
    0.2796   -3.7125    0.0000 C   0  0  0  0  0  0  0  0  0  0  0  0
    0.2796   -2.8875    0.0000 N   0  0  0  0  0  0  0  0  0  0  0  0
    0.9940   -2.4750    0.0000 N   0  0  0  0  0  0  0  0  0  0  0  0
    0.9940   -1.6500    0.0000 C   0  0  0  0  0  0  0  0  0  0  0  0
    0.2796   -1.2375    0.0000 C   0  0  0  0  0  0  0  0  0  0  0  0
   -0.4349   -1.6500    0.0000 O   0  0  0  0  0  0  0  0  0  0  0  0
    0.2796   -0.4125    0.0000 C   0  0  0  0  0  0  0  0  0  0  0  0
    0.9940   -0.0000    0.0000 C   0  0  0  0  0  0  0  0  0  0  0  0
    1.7085   -0.4125    0.0000 C   0  0  0  0  0  0  0  0  0  0  0  0
    2.4230    0.0000    0.0000 C   0  0  0  0  0  0  0  0  0  0  0  0
    3.1375   -0.4125    0.0000 C   0  0  0  0  0  0  0  0  0  0  0  0
    3.1375   -1.2375    0.0000 C   0  0  0  0  0  0  0  0  0  0  0  0
    2.4230   -1.6500    0.0000 C   0  0  0  0  0  0  0  0  0  0  0  0
    1.7085   -1.2375    0.0000 C   0  0  0  0  0  0  0  0  0  0  0  0
   -0.4349   -4.1250    0.0000 C   0  0  0  0  0  0  0  0  0  0  0  0
   -0.4349   -4.9500    0.0000 C   0  0  0  0  0  0  0  0  0  0  0  0
  1  2  1  0  0  0  0
  3  2  2  0  0  0  0
  4  3  1  0  0  0  0
  4  5  1  0  0  0  0
  5  6  1  0  0  0  0
  5  7  2  0  0  0  0
  8  4  2  0  0  0  0
  9  8  1  4  0  0  0
  9 10  2  0  0  0  0
 10 11  1  0  0  0  0
 12 11  1  0  0  0  0
 12 13  1  0  0  0  0
 14 12  2  0  0  0  0
 15 14  1  0  0  0  0
 16 15  2  0  0  0  0
 16 17  1  0  0  0  0
 17 18  2  0  0  0  0
 18 19  1  0  0  0  0
 19 20  2  0  0  0  0
 20 21  1  0  0  0  0
 11 21  2  0  0  0  0
 21 16  1  0  0  0  0
 22  8  1  0  0  0  0
 23 22  2  0  0  0  0
  2 23  1  0  0  0  0
M  CHG  2   5   1   6  -1
M  END
> <RowID>
1333

> <Original_SMILES>
CC1=CC(=C(C=C1)N=NC1C(O)=CC=C2C=CC=CC2=1)[N+]([O-])=O

> <Canonical_QSARr>
CC1=CC(=C(C=C1)N=NC1C(O)=CC=C2C=CC=CC2=1)[N+]([O-])=O

> <InChI_Code_QSARr>
InChI=1S/C17H13N3O3/c1-11-6-8-14(15(10-11)20(22)23)18-19-17-13-5-3-2-4-12(13)7-9-16(17)21/h2-10,21H,1H3

> <InChI Key_QSARr>
ZLFVRXUOSPRRKQ-UHFFFAOYSA-N

> <Salt_Solvent>


> <Salt_Solvent_ID>
0

> <Number of connected components>
1

$$$$
Molecule_1334
  Mrv2316 01072400032D          

 31 34  0  0  0  0            999 V2000
   -2.8579   -5.7750    0.0000 O   0  0  0  0  0  0  0  0  0  0  0  0
   -2.1434   -5.3625    0.0000 S   0  0  0  0  0  0  0  0  0  0  0  0
   -2.5559   -4.6480    0.0000 O   0  0  0  0  0  0  0  0  0  0  0  0
   -1.7309   -6.0770    0.0000 O   0  0  0  0  0  0  0  0  0  0  0  0
   -1.4289   -4.9500    0.0000 C   0  0  0  0  0  0  0  0  0  0  0  0
   -0.7145   -5.3625    0.0000 C   0  0  0  0  0  0  0  0  0  0  0  0
   -0.0000   -4.9500    0.0000 C   0  0  0  0  0  0  0  0  0  0  0  0
    0.7145   -5.3625    0.0000 C   0  0  0  0  0  0  0  0  0  0  0  0
    0.7145   -6.1875    0.0000 C   0  0  0  0  0  0  0  0  0  0  0  0
   -0.0000   -6.6000    0.0000 C   0  0  0  0  0  0  0  0  0  0  0  0
   -0.7145   -6.1875    0.0000 C   0  0  0  0  0  0  0  0  0  0  0  0
   -0.0000   -4.1250    0.0000 C   0  0  0  0  0  0  0  0  0  0  0  0
    0.7145   -3.7125    0.0000 O   0  0  0  0  0  0  0  0  0  0  0  0
   -0.7145   -3.7125    0.0000 C   0  0  0  0  0  0  0  0  0  0  0  0
   -0.7145   -2.8875    0.0000 N   0  0  0  0  0  0  0  0  0  0  0  0
   -0.0000   -2.4750    0.0000 N   0  0  0  0  0  0  0  0  0  0  0  0
   -0.0000   -1.6500    0.0000 C   0  0  0  0  0  0  0  0  0  0  0  0
    0.7145   -1.2375    0.0000 C   0  0  0  0  0  0  0  0  0  0  0  0
    0.7145   -0.4125    0.0000 C   0  0  0  0  0  0  0  0  0  0  0  0
    1.4289    0.0000    0.0000 C   0  0  0  0  0  0  0  0  0  0  0  0
    2.1434   -0.4125    0.0000 C   0  0  0  0  0  0  0  0  0  0  0  0
    2.1434   -1.2375    0.0000 C   0  0  0  0  0  0  0  0  0  0  0  0
    1.4289   -1.6500    0.0000 C   0  0  0  0  0  0  0  0  0  0  0  0
   -0.0000    0.0000    0.0000 C   0  0  0  0  0  0  0  0  0  0  0  0
   -0.0000    0.8250    0.0000 S   0  0  0  0  0  0  0  0  0  0  0  0
   -0.0000    1.6500    0.0000 O   0  0  0  0  0  0  0  0  0  0  0  0
    0.8250    0.8250    0.0000 O   0  0  0  0  0  0  0  0  0  0  0  0
   -0.8250    0.8250    0.0000 O   0  0  0  0  0  0  0  0  0  0  0  0
   -0.7145   -0.4125    0.0000 C   0  0  0  0  0  0  0  0  0  0  0  0
   -0.7145   -1.2375    0.0000 C   0  0  0  0  0  0  0  0  0  0  0  0
   -1.4289   -4.1250    0.0000 C   0  0  0  0  0  0  0  0  0  0  0  0
  1  2  1  0  0  0  0
  2  3  2  0  0  0  0
  2  4  2  0  0  0  0
  2  5  1  0  0  0  0
  6  5  1  0  0  0  0
  6  7  2  0  0  0  0
  7  8  1  0  0  0  0
  8  9  2  0  0  0  0
  9 10  1  0  0  0  0
 10 11  2  0  0  0  0
 11  6  1  0  0  0  0
 12  7  1  0  0  0  0
 12 13  1  0  0  0  0
 14 12  2  0  0  0  0
 15 14  1  4  0  0  0
 15 16  2  0  0  0  0
 16 17  1  0  0  0  0
 18 17  1  0  0  0  0
 18 19  1  0  0  0  0
 19 20  2  0  0  0  0
 20 21  1  0  0  0  0
 21 22  2  0  0  0  0
 22 23  1  0  0  0  0
 23 18  2  0  0  0  0
 24 19  1  0  0  0  0
 24 25  1  0  0  0  0
 25 26  1  0  0  0  0
 25 27  2  0  0  0  0
 25 28  2  0  0  0  0
 29 24  2  0  0  0  0
 30 29  1  0  0  0  0
 17 30  2  0  0  0  0
 31 14  1  0  0  0  0
  5 31  2  0  0  0  0
M  END
> <RowID>
1334

> <Original_SMILES>
[Al+3].[Al+3].[O-]S(=O)(=O)C1=CC(N=NC2=CC=C(C3C=CC=CC=32)S([O-])(=O)=O)=C(O)C2C=CC=CC=21.[O-]S(=O)(=O)C1=CC(N=NC2=CC=C(C3C=CC=CC=32)S([O-])(=O)=O)=C(O)C2C=CC=CC=21.[O-]S(=O)(=O)C1=CC(N=NC2=CC=C(C3C=CC=CC=32)S([O-])(=O)=O)=C(O)C2C=CC=CC=21

> <Canonical_QSARr>
OC1C2C=CC=CC=2C(=CC=1N=NC1=CC=C(C2=CC=CC=C21)S(O)(=O)=O)S(O)(=O)=O

> <InChI_Code_QSARr>
InChI=1S/C20H14N2O7S2/c23-20-15-8-4-3-7-14(15)19(31(27,28)29)11-17(20)22-21-16-9-10-18(30(24,25)26)13-6-2-1-5-12(13)16/h1-11,23H,(H,24,25,26)(H,27,28,29)

> <InChI Key_QSARr>
TVWOWDDBXAFQDG-UHFFFAOYSA-N

> <Salt_Solvent>
[Al+3]

> <Salt_Solvent_ID>
130

> <Number of connected components>
5

$$$$
Molecule_1335
  Mrv2316 01072400032D          

 32 34  0  0  0  0            999 V2000
    4.2868  -14.1024    0.0000 O   0  0  0  0  0  0  0  0  0  0  0  0
    4.2868  -13.2774    0.0000 S   0  0  0  0  0  0  0  0  0  0  0  0
    5.1118  -13.2774    0.0000 O   0  0  0  0  0  0  0  0  0  0  0  0
    3.4618  -13.2774    0.0000 O   0  0  0  0  0  0  0  0  0  0  0  0
    4.2868  -12.4524    0.0000 C   0  0  0  0  0  0  0  0  0  0  0  0
    5.0013  -12.0399    0.0000 C   0  0  0  0  0  0  0  0  0  0  0  0
    5.0013  -11.2149    0.0000 C   0  0  0  0  0  0  0  0  0  0  0  0
    4.2868  -10.8024    0.0000 C   0  0  0  0  0  0  0  0  0  0  0  0
    4.2868   -9.9774    0.0000 N   0  0  0  0  0  0  0  0  0  0  0  0
    3.5724   -9.5649    0.0000 N   0  0  0  0  0  0  0  0  0  0  0  0
    3.5724   -8.7399    0.0000 C   0  0  0  0  0  0  0  0  0  0  0  0
    4.2868   -8.3274    0.0000 C   0  0  0  0  0  0  0  0  0  0  0  0
    5.0013   -8.7399    0.0000 O   0  0  0  0  0  0  0  0  0  0  0  0
    4.2868   -7.5024    0.0000 C   0  0  0  0  0  0  0  0  0  0  0  0
    3.5724   -7.0899    0.0000 C   0  0  0  0  0  0  0  0  0  0  0  0
    2.8579   -7.5024    0.0000 C   0  0  0  0  0  0  0  0  0  0  0  0
    2.1434   -7.0899    0.0000 N   0  0  0  0  0  0  0  0  0  0  0  0
    2.1434   -6.2649    0.0000 N   0  0  0  0  0  0  0  0  0  0  0  0
    1.4289   -5.8524    0.0000 C   0  0  0  0  0  0  0  0  0  0  0  0
    1.4289   -5.0274    0.0000 C   0  0  0  0  0  0  0  0  0  0  0  0
    2.1434   -4.6149    0.0000 C   0  0  0  0  0  0  0  0  0  0  0  0
    2.1434   -3.7899    0.0000 O   0  0  0  0  0  0  0  0  0  0  0  0
    2.8579   -5.0274    0.0000 O   0  0  0  0  0  0  0  0  0  0  0  0
    0.7145   -4.6149    0.0000 C   0  0  0  0  0  0  0  0  0  0  0  0
   -0.0000   -5.0274    0.0000 C   0  0  0  0  0  0  0  0  0  0  0  0
   -0.0000   -5.8524    0.0000 C   0  0  0  0  0  0  0  0  0  0  0  0
    0.7145   -6.2649    0.0000 C   0  0  0  0  0  0  0  0  0  0  0  0
    2.8579   -8.3274    0.0000 C   0  0  0  0  0  0  0  0  0  0  0  0
    2.1434   -8.7399    0.0000 O   0  0  0  0  0  0  0  0  0  0  0  0
    3.5724  -11.2149    0.0000 C   0  0  0  0  0  0  0  0  0  0  0  0
    2.8579  -10.8024    0.0000 C   0  0  0  0  0  0  0  0  0  0  0  0
    3.5724  -12.0399    0.0000 C   0  0  0  0  0  0  0  0  0  0  0  0
  1  2  1  0  0  0  0
  2  3  2  0  0  0  0
  2  4  2  0  0  0  0
  2  5  1  0  0  0  0
  6  5  1  0  0  0  0
  7  6  2  0  0  0  0
  8  7  1  0  0  0  0
  9  8  1  4  0  0  0
  9 10  2  0  0  0  0
 10 11  1  0  0  0  0
 12 11  1  0  0  0  0
 12 13  1  0  0  0  0
 14 12  2  0  0  0  0
 15 14  1  0  0  0  0
 16 15  2  0  0  0  0
 17 16  1  4  0  0  0
 17 18  2  0  0  0  0
 18 19  1  0  0  0  0
 20 19  2  0  0  0  0
 20 21  1  0  0  0  0
 21 22  1  0  0  0  0
 21 23  2  0  0  0  0
 24 20  1  0  0  0  0
 25 24  2  0  0  0  0
 26 25  1  0  0  0  0
 27 26  2  0  0  0  0
 19 27  1  0  0  0  0
 28 16  1  0  0  0  0
 11 28  2  0  0  0  0
 28 29  1  0  0  0  0
 30  8  2  0  0  0  0
 30 31  1  0  0  0  0
 32 30  1  0  0  0  0
  5 32  2  0  0  0  0
M  END
> <RowID>
1335

> <Original_SMILES>
[Na+].[Na+].[Na+].[Cr+3].CC1C=C(C=CC=1N=NC1C(O)=CC=C(N=NC2=CC=CC=C2C([O-])=O)C=1[O-])S([O-])(=O)=O.CC1C=C(C=CC=1N=NC1C(O)=CC=C(N=NC2=CC=CC=C2C([O-])=O)C=1[O-])S([O-])(=O)=O

> <Canonical_QSARr>
CC1C=C(C=CC=1N=NC1=C(O)C(=CC=C1O)N=NC1C=CC=CC=1C(O)=O)S(O)(=O)=O

> <InChI_Code_QSARr>
InChI=1S/C20H16N4O7S/c1-11-10-12(32(29,30)31)6-7-14(11)21-24-18-17(25)9-8-16(19(18)26)23-22-15-5-3-2-4-13(15)20(27)28/h2-10,25-26H,1H3,(H,27,28)(H,29,30,31)

> <InChI Key_QSARr>
OSGVSCUADOUDOY-UHFFFAOYSA-N

> <Salt_Solvent>
[Na+].[Cr+3]

> <Salt_Solvent_ID>
175

> <Number of connected components>
6

$$$$
Molecule_1336
  Mrv2316 01072400032D          

  9  8  0  0  0  0            999 V2000
    0.8250   -1.4289    0.0000 C   0  0  0  0  0  0  0  0  0  0  0  0
    1.2375   -2.1434    0.0000 C   0  0  0  0  0  0  0  0  0  0  0  0
    2.0625   -2.1434    0.0000 C   0  0  0  0  0  0  0  0  0  0  0  0
    2.4750   -2.8579    0.0000 C   0  0  0  0  0  0  0  0  0  0  0  0
    3.3000   -2.8579    0.0000 C   0  0  0  0  0  0  0  0  0  0  0  0
    3.7125   -3.5724    0.0000 C   0  0  0  0  0  0  0  0  0  0  0  0
    4.5375   -3.5724    0.0000 C   0  0  0  0  0  0  0  0  0  0  0  0
    3.7125   -2.1434    0.0000 C   0  0  0  0  0  0  0  0  0  0  0  0
    4.5375   -2.1434    0.0000 O   0  0  0  0  0  0  0  0  0  0  0  0
  1  2  1  0  0  0  0
  2  3  1  0  0  0  0
  3  4  1  0  0  0  0
  4  5  1  0  0  0  0
  5  6  1  0  0  0  0
  6  7  1  0  0  0  0
  5  8  1  0  0  0  0
  8  9  2  0  0  0  0
M  END
> <RowID>
1336

> <Original_SMILES>
CCCCC(CC)C=O

> <Canonical_QSARr>
CCCCC(CC)C=O

> <InChI_Code_QSARr>
InChI=1S/C8H16O/c1-3-5-6-8(4-2)7-9/h7-8H,3-6H2,1-2H3

> <InChI Key_QSARr>
LGYNIFWIKSEESD-UHFFFAOYSA-N

> <Salt_Solvent>


> <Salt_Solvent_ID>
0

> <Number of connected components>
1

$$$$
Molecule_1338
  Mrv2316 01072400032D          

 11 11  0  0  0  0            999 V2000
   -0.0000   -0.7500    0.0000 C   0  0  0  0  0  0  0  0  0  0  0  0
    0.7145   -0.3375    0.0000 C   0  0  0  0  0  0  0  0  0  0  0  0
    1.4289   -0.7500    0.0000 C   0  0  0  0  0  0  0  0  0  0  0  0
    0.7145    0.4875    0.0000 C   0  0  0  0  0  0  0  0  0  0  0  0
    1.4289    0.9000    0.0000 C   0  0  0  0  0  0  0  0  0  0  0  0
    1.4289    1.7250    0.0000 C   0  0  0  0  0  0  0  0  0  0  0  0
    0.7145    2.1375    0.0000 C   0  0  0  0  0  0  0  0  0  0  0  0
    0.7145    2.9625    0.0000 C   0  0  0  0  0  0  0  0  0  0  0  0
   -0.0000    1.7250    0.0000 C   0  0  0  0  0  0  0  0  0  0  0  0
   -0.0000    0.9000    0.0000 C   0  0  0  0  0  0  0  0  0  0  0  0
   -0.7145    0.4875    0.0000 O   0  0  0  0  0  0  0  0  0  0  0  0
  1  2  1  0  0  0  0
  2  3  1  0  0  0  0
  2  4  1  0  0  0  0
  5  4  1  0  0  0  0
  6  5  1  0  0  0  0
  7  6  1  0  0  0  0
  7  8  1  0  0  0  0
  9  7  1  0  0  0  0
 10  9  1  0  0  0  0
  4 10  1  0  0  0  0
 10 11  2  0  0  0  0
M  END
> <RowID>
1338

> <Original_SMILES>
CC(C)C1CCC(C)CC1=O

> <Canonical_QSARr>
CC(C)C1CCC(C)CC1=O

> <InChI_Code_QSARr>
InChI=1S/C10H18O/c1-7(2)9-5-4-8(3)6-10(9)11/h7-9H,4-6H2,1-3H3

> <InChI Key_QSARr>
NFLGAXVYCFJBMK-UHFFFAOYSA-N

> <Salt_Solvent>


> <Salt_Solvent_ID>
0

> <Number of connected components>
1

$$$$
Molecule_1339
  Mrv2316 01072400032D          

 11 12  0  0  0  0            999 V2000
    3.4990    1.7104    0.0000 O   0  0  0  0  0  0  0  0  0  0  0  0
    2.7845    2.1229    0.0000 C   0  0  0  0  0  0  0  0  0  0  0  0
    2.0701    1.7104    0.0000 C   0  0  0  0  0  0  0  0  0  0  0  0
    1.3556    2.1229    0.0000 C   0  0  0  0  0  0  0  0  0  0  0  0
    0.6411    1.7104    0.0000 C   0  0  0  0  0  0  0  0  0  0  0  0
   -0.1435    1.9653    0.0000 O   0  0  0  0  0  0  0  0  0  0  0  0
   -0.6284    1.2979    0.0000 C   0  0  0  0  0  0  0  0  0  0  0  0
   -0.1435    0.6305    0.0000 O   0  0  0  0  0  0  0  0  0  0  0  0
    0.6411    0.8854    0.0000 C   0  0  0  0  0  0  0  0  0  0  0  0
    1.3556    0.4729    0.0000 C   0  0  0  0  0  0  0  0  0  0  0  0
    2.0701    0.8854    0.0000 C   0  0  0  0  0  0  0  0  0  0  0  0
  1  2  2  0  0  0  0
  2  3  1  0  0  0  0
  4  3  1  0  0  0  0
  5  4  2  0  0  0  0
  5  6  1  0  0  0  0
  6  7  1  0  0  0  0
  7  8  1  0  0  0  0
  8  9  1  0  0  0  0
  9  5  1  0  0  0  0
 10  9  2  0  0  0  0
 11 10  1  0  0  0  0
  3 11  2  0  0  0  0
M  END
> <RowID>
1339

> <Original_SMILES>
O=CC1C=C2OCOC2=CC=1

> <Canonical_QSARr>
O=CC1C=C2OCOC2=CC=1

> <InChI_Code_QSARr>
InChI=1S/C8H6O3/c9-4-6-1-2-7-8(3-6)11-5-10-7/h1-4H,5H2

> <InChI Key_QSARr>
SATCULPHIDQDRE-UHFFFAOYSA-N

> <Salt_Solvent>


> <Salt_Solvent_ID>
0

> <Number of connected components>
1

$$$$
Molecule_1340
  Mrv2316 01072400032D          

 44 43  0  0  0  0            999 V2000
    3.2783   20.0427    0.0000 C   0  0  0  0  0  0  0  0  0  0  0  0
    3.2783   19.2177    0.0000 C   0  0  0  0  0  0  0  0  0  0  0  0
    3.9928   18.8052    0.0000 C   0  0  0  0  0  0  0  0  0  0  0  0
    3.9928   17.9802    0.0000 C   0  0  0  0  0  0  0  0  0  0  0  0
    4.7073   17.5677    0.0000 C   0  0  0  0  0  0  0  0  0  0  0  0
    4.7073   16.7427    0.0000 C   0  0  0  0  0  0  0  0  0  0  0  0
    5.4218   16.3302    0.0000 C   0  0  0  0  0  0  0  0  0  0  0  0
    5.4218   15.5052    0.0000 C   0  0  0  0  0  0  0  0  0  0  0  0
    6.1362   15.0927    0.0000 C   0  0  0  0  0  0  0  0  0  0  0  0
    6.1362   14.2677    0.0000 C   0  0  0  0  0  0  0  0  0  0  0  0
    6.8507   13.8552    0.0000 C   0  0  0  0  0  0  0  0  0  0  0  0
    6.8507   13.0302    0.0000 C   0  0  0  0  0  0  0  0  0  0  0  0
    7.5652   12.6177    0.0000 C   0  0  0  0  0  0  0  0  0  0  0  0
    7.5652   11.7927    0.0000 C   0  0  0  0  0  0  0  0  0  0  0  0
    8.2796   11.3802    0.0000 C   0  0  0  0  0  0  0  0  0  0  0  0
    8.2796   10.5552    0.0000 C   0  0  0  0  0  0  0  0  0  0  0  0
    8.9941   10.1427    0.0000 C   0  0  0  0  0  0  0  0  0  0  0  0
    8.9941    9.3177    0.0000 C   0  0  0  0  0  0  0  0  0  0  0  0
    9.7086    8.9052    0.0000 O   0  0  0  0  0  0  0  0  0  0  0  0
    9.7086    8.0802    0.0000 C   0  0  0  0  0  0  0  0  0  0  0  0
    8.9941    7.6677    0.0000 O   0  0  0  0  0  0  0  0  0  0  0  0
   10.4231    7.6677    0.0000 C   0  0  0  0  0  0  0  0  0  0  0  0
   10.4231    6.8427    0.0000 C   0  0  0  0  0  0  0  0  0  0  0  0
   11.1375    6.4302    0.0000 C   0  0  0  0  0  0  0  0  0  0  0  0
   11.1375    5.6052    0.0000 O   0  0  0  0  0  0  0  0  0  0  0  0
   11.8520    6.8427    0.0000 O   0  0  0  0  0  0  0  0  0  0  0  0
   12.5665    6.4302    0.0000 C   0  0  0  0  0  0  0  0  0  0  0  0
   13.2809    6.8427    0.0000 C   0  0  0  0  0  0  0  0  0  0  0  0
   13.9954    6.4302    0.0000 C   0  0  0  0  0  0  0  0  0  0  0  0
   14.7099    6.8427    0.0000 C   0  0  0  0  0  0  0  0  0  0  0  0
   15.4243    6.4302    0.0000 C   0  0  0  0  0  0  0  0  0  0  0  0
   16.1388    6.8427    0.0000 C   0  0  0  0  0  0  0  0  0  0  0  0
   16.8533    6.4302    0.0000 C   0  0  0  0  0  0  0  0  0  0  0  0
   17.5678    6.8427    0.0000 C   0  0  0  0  0  0  0  0  0  0  0  0
   18.2822    6.4302    0.0000 C   0  0  0  0  0  0  0  0  0  0  0  0
   18.9967    6.8427    0.0000 C   0  0  0  0  0  0  0  0  0  0  0  0
   19.7112    6.4302    0.0000 C   0  0  0  0  0  0  0  0  0  0  0  0
   20.4256    6.8427    0.0000 C   0  0  0  0  0  0  0  0  0  0  0  0
   21.1401    6.4302    0.0000 C   0  0  0  0  0  0  0  0  0  0  0  0
   21.8546    6.8427    0.0000 C   0  0  0  0  0  0  0  0  0  0  0  0
   22.5691    6.4302    0.0000 C   0  0  0  0  0  0  0  0  0  0  0  0
   23.2835    6.8427    0.0000 C   0  0  0  0  0  0  0  0  0  0  0  0
   23.9980    6.4302    0.0000 C   0  0  0  0  0  0  0  0  0  0  0  0
   24.7125    6.8427    0.0000 C   0  0  0  0  0  0  0  0  0  0  0  0
  1  2  1  0  0  0  0
  2  3  1  0  0  0  0
  3  4  1  0  0  0  0
  4  5  1  0  0  0  0
  5  6  1  0  0  0  0
  6  7  1  0  0  0  0
  7  8  1  0  0  0  0
  8  9  1  0  0  0  0
  9 10  1  0  0  0  0
 10 11  1  0  0  0  0
 11 12  1  0  0  0  0
 12 13  1  0  0  0  0
 13 14  1  0  0  0  0
 14 15  1  0  0  0  0
 15 16  1  0  0  0  0
 16 17  1  0  0  0  0
 17 18  1  0  0  0  0
 18 19  1  0  0  0  0
 19 20  1  0  0  0  0
 20 21  2  0  0  0  0
 22 20  1  4  0  0  0
 22 23  2  0  0  0  0
 23 24  1  0  0  0  0
 24 25  2  0  0  0  0
 24 26  1  0  0  0  0
 26 27  1  0  0  0  0
 27 28  1  0  0  0  0
 28 29  1  0  0  0  0
 29 30  1  0  0  0  0
 30 31  1  0  0  0  0
 31 32  1  0  0  0  0
 32 33  1  0  0  0  0
 33 34  1  0  0  0  0
 34 35  1  0  0  0  0
 35 36  1  0  0  0  0
 36 37  1  0  0  0  0
 37 38  1  0  0  0  0
 38 39  1  0  0  0  0
 39 40  1  0  0  0  0
 40 41  1  0  0  0  0
 41 42  1  0  0  0  0
 42 43  1  0  0  0  0
 43 44  1  0  0  0  0
M  END
> <RowID>
1340

> <Original_SMILES>
CCCCCCCCCCCCCCCCCCOC(=O)C=CC(=O)OCCCCCCCCCCCCCCCCCC

> <Canonical_QSARr>
CCCCCCCCCCCCCCCCCCOC(=O)C=CC(=O)OCCCCCCCCCCCCCCCCCC

> <InChI_Code_QSARr>
InChI=1S/C40H76O4/c1-3-5-7-9-11-13-15-17-19-21-23-25-27-29-31-33-37-43-39(41)35-36-40(42)44-38-34-32-30-28-26-24-22-20-18-16-14-12-10-8-6-4-2/h35-36H,3-34,37-38H2,1-2H3

> <InChI Key_QSARr>
XHSDDKAGJYJAQM-UHFFFAOYSA-N

> <Salt_Solvent>


> <Salt_Solvent_ID>
0

> <Number of connected components>
1

$$$$
Molecule_1341
  Mrv2316 01072400032D          

 11 11  0  0  0  0            999 V2000
   -1.1691    0.9750    0.0000 C   0  0  0  0  0  0  0  0  0  0  0  0
   -0.4547    0.5625    0.0000 C   0  0  0  0  0  0  0  0  0  0  0  0
   -0.4547   -0.2625    0.0000 C   0  0  0  0  0  0  0  0  0  0  0  0
    0.2598   -0.6750    0.0000 C   0  0  0  0  0  0  0  0  0  0  0  0
    0.9743   -0.2625    0.0000 C   0  0  0  0  0  0  0  0  0  0  0  0
    0.9743    0.5625    0.0000 C   0  0  0  0  0  0  0  0  0  0  0  0
    0.2598    0.9750    0.0000 C   0  0  0  0  0  0  0  0  0  0  0  0
    0.2598    1.8000    0.0000 S   0  0  0  0  0  0  0  0  0  0  0  0
    0.2598    2.6250    0.0000 N   0  0  0  0  0  0  0  0  0  0  0  0
    1.0848    1.8000    0.0000 O   0  0  0  0  0  0  0  0  0  0  0  0
   -0.5652    1.8000    0.0000 O   0  0  0  0  0  0  0  0  0  0  0  0
  1  2  1  0  0  0  0
  3  2  1  0  0  0  0
  4  3  2  0  0  0  0
  5  4  1  0  0  0  0
  6  5  2  0  0  0  0
  7  6  1  0  0  0  0
  2  7  2  0  0  0  0
  7  8  1  0  0  0  0
  8  9  1  0  0  0  0
  8 10  2  0  0  0  0
  8 11  2  0  0  0  0
M  END
> <RowID>
1341

> <Original_SMILES>
CC1C=CC=CC=1S(N)(=O)=O

> <Canonical_QSARr>
CC1C=CC=CC=1S(N)(=O)=O

> <InChI_Code_QSARr>
InChI=1S/C7H9NO2S/c1-6-4-2-3-5-7(6)11(8,9)10/h2-5H,1H3,(H2,8,9,10)

> <InChI Key_QSARr>
YCMLQMDWSXFTIF-UHFFFAOYSA-N

> <Salt_Solvent>


> <Salt_Solvent_ID>
0

> <Number of connected components>
1

$$$$
Molecule_1342
  Mrv2316 01072400032D          

 68 68  0  0  0  0            999 V2000
    1.6457    1.4811    0.0000 C   0  0  0  0  0  0  0  0  0  0  0  0
    1.6457    0.6561    0.0000 C   0  0  0  0  0  0  0  0  0  0  0  0
    2.3602    0.2436    0.0000 C   0  0  0  0  0  0  0  0  0  0  0  0
    2.3602   -0.5814    0.0000 C   0  0  0  0  0  0  0  0  0  0  0  0
    3.0747   -0.9939    0.0000 C   0  0  0  0  0  0  0  0  0  0  0  0
    3.0747   -1.8189    0.0000 C   0  0  0  0  0  0  0  0  0  0  0  0
    3.7891   -2.2314    0.0000 C   0  0  0  0  0  0  0  0  0  0  0  0
    3.7891   -3.0564    0.0000 C   0  0  0  0  0  0  0  0  0  0  0  0
    4.5036   -3.4689    0.0000 C   0  0  0  0  0  0  0  0  0  0  0  0
    4.5036   -4.2939    0.0000 C   0  0  0  0  0  0  0  0  0  0  0  0
    5.2181   -4.7064    0.0000 C   0  0  0  0  0  0  0  0  0  0  0  0
    5.2181   -5.5314    0.0000 C   0  0  0  0  0  0  0  0  0  0  0  0
    5.9326   -5.9439    0.0000 C   0  0  0  0  0  0  0  0  0  0  0  0
    5.9326   -6.7689    0.0000 C   0  0  0  0  0  0  0  0  0  0  0  0
    6.6470   -7.1814    0.0000 C   0  0  0  0  0  0  0  0  0  0  0  0
    6.6470   -8.0064    0.0000 C   0  0  0  0  0  0  0  0  0  0  0  0
    7.3615   -8.4189    0.0000 C   0  0  0  0  0  0  0  0  0  0  0  0
    7.3615   -9.2439    0.0000 C   0  0  0  0  0  0  0  0  0  0  0  0
    6.6470   -9.6564    0.0000 O   0  0  0  0  0  0  0  0  0  0  0  0
    8.0760   -9.6564    0.0000 O   0  0  0  0  0  0  0  0  0  0  0  0
    8.0760  -10.4814    0.0000 C   0  0  0  0  0  0  0  0  0  0  0  0
    8.7904  -10.8939    0.0000 C   0  0  0  0  0  0  0  0  0  0  0  0
    9.5049  -10.4814    0.0000 O   0  0  0  0  0  0  0  0  0  0  0  0
    9.5049   -9.6564    0.0000 C   0  0  0  0  0  0  0  0  0  0  0  0
    8.7904   -9.2439    0.0000 O   0  0  0  0  0  0  0  0  0  0  0  0
   10.2194   -9.2439    0.0000 C   0  0  0  0  0  0  0  0  0  0  0  0
   10.2194   -8.4189    0.0000 C   0  0  0  0  0  0  0  0  0  0  0  0
   10.9339   -8.0064    0.0000 C   0  0  0  0  0  0  0  0  0  0  0  0
   10.9339   -7.1814    0.0000 C   0  0  0  0  0  0  0  0  0  0  0  0
   11.6483   -6.7689    0.0000 C   0  0  0  0  0  0  0  0  0  0  0  0
   11.6483   -5.9439    0.0000 C   0  0  0  0  0  0  0  0  0  0  0  0
   12.3628   -5.5314    0.0000 C   0  0  0  0  0  0  0  0  0  0  0  0
   12.3628   -4.7064    0.0000 C   0  0  0  0  0  0  0  0  0  0  0  0
   13.0773   -4.2939    0.0000 C   0  0  0  0  0  0  0  0  0  0  0  0
   13.0773   -3.4689    0.0000 C   0  0  0  0  0  0  0  0  0  0  0  0
   13.7917   -3.0564    0.0000 C   0  0  0  0  0  0  0  0  0  0  0  0
   13.7917   -2.2314    0.0000 C   0  0  0  0  0  0  0  0  0  0  0  0
   14.5062   -1.8189    0.0000 C   0  0  0  0  0  0  0  0  0  0  0  0
   14.5062   -0.9939    0.0000 C   0  0  0  0  0  0  0  0  0  0  0  0
   15.2207   -0.5814    0.0000 C   0  0  0  0  0  0  0  0  0  0  0  0
   15.2207    0.2436    0.0000 C   0  0  0  0  0  0  0  0  0  0  0  0
   15.9352    0.6561    0.0000 C   0  0  0  0  0  0  0  0  0  0  0  0
    8.7904  -11.7189    0.0000 C   0  0  0  0  0  0  0  0  0  0  0  0
    8.1230  -12.2038    0.0000 O   0  0  0  0  0  0  0  0  0  0  0  0
    8.3779  -12.9884    0.0000 C   0  0  0  0  0  0  0  0  0  0  0  0
    9.2029  -12.9884    0.0000 C   0  0  0  0  0  0  0  0  0  0  0  0
    9.6879  -13.6558    0.0000 O   0  0  0  0  0  0  0  0  0  0  0  0
    9.4579  -12.2038    0.0000 C   0  0  0  0  0  0  0  0  0  0  0  0
   10.2425  -11.9488    0.0000 O   0  0  0  0  0  0  0  0  0  0  0  0
   10.8556  -12.5009    0.0000 C   0  0  0  0  0  0  0  0  0  0  0  0
   10.6841  -13.3079    0.0000 O   0  0  0  0  0  0  0  0  0  0  0  0
   11.6402  -12.2459    0.0000 C   0  0  0  0  0  0  0  0  0  0  0  0
   12.2533  -12.7980    0.0000 C   0  0  0  0  0  0  0  0  0  0  0  0
   13.0379  -12.5430    0.0000 C   0  0  0  0  0  0  0  0  0  0  0  0
   13.6510  -13.0951    0.0000 C   0  0  0  0  0  0  0  0  0  0  0  0
   14.4357  -12.8401    0.0000 C   0  0  0  0  0  0  0  0  0  0  0  0
   15.0487  -13.3922    0.0000 C   0  0  0  0  0  0  0  0  0  0  0  0
   15.8334  -13.1372    0.0000 C   0  0  0  0  0  0  0  0  0  0  0  0
   16.4465  -13.6893    0.0000 C   0  0  0  0  0  0  0  0  0  0  0  0
   17.2311  -13.4343    0.0000 C   0  0  0  0  0  0  0  0  0  0  0  0
   17.8442  -13.9863    0.0000 C   0  0  0  0  0  0  0  0  0  0  0  0
   18.6288  -13.7314    0.0000 C   0  0  0  0  0  0  0  0  0  0  0  0
   19.2419  -14.2834    0.0000 C   0  0  0  0  0  0  0  0  0  0  0  0
   20.0265  -14.0285    0.0000 C   0  0  0  0  0  0  0  0  0  0  0  0
   20.6396  -14.5805    0.0000 C   0  0  0  0  0  0  0  0  0  0  0  0
   21.4242  -14.3256    0.0000 C   0  0  0  0  0  0  0  0  0  0  0  0
   22.0373  -14.8776    0.0000 C   0  0  0  0  0  0  0  0  0  0  0  0
   22.8220  -14.6227    0.0000 C   0  0  0  0  0  0  0  0  0  0  0  0
  1  2  1  0  0  0  0
  2  3  1  0  0  0  0
  3  4  1  0  0  0  0
  4  5  1  0  0  0  0
  5  6  1  0  0  0  0
  6  7  1  0  0  0  0
  7  8  1  0  0  0  0
  8  9  1  0  0  0  0
  9 10  1  0  0  0  0
 10 11  1  0  0  0  0
 11 12  1  0  0  0  0
 12 13  1  0  0  0  0
 13 14  1  0  0  0  0
 14 15  1  0  0  0  0
 15 16  1  0  0  0  0
 16 17  1  0  0  0  0
 17 18  1  0  0  0  0
 18 19  2  0  0  0  0
 18 20  1  0  0  0  0
 20 21  1  0  0  0  0
 21 22  1  0  0  0  0
 22 23  1  0  0  0  0
 23 24  1  0  0  0  0
 24 25  2  0  0  0  0
 24 26  1  0  0  0  0
 26 27  1  0  0  0  0
 27 28  1  0  0  0  0
 28 29  1  0  0  0  0
 29 30  1  0  0  0  0
 30 31  1  0  0  0  0
 31 32  1  0  0  0  0
 32 33  1  0  0  0  0
 33 34  1  0  0  0  0
 34 35  1  0  0  0  0
 35 36  1  0  0  0  0
 36 37  1  0  0  0  0
 37 38  1  0  0  0  0
 38 39  1  0  0  0  0
 39 40  1  0  0  0  0
 40 41  1  0  0  0  0
 41 42  1  0  0  0  0
 22 43  1  0  0  0  0
 44 43  1  0  0  0  0
 45 44  1  0  0  0  0
 46 45  1  0  0  0  0
 46 47  1  0  0  0  0
 48 46  1  0  0  0  0
 43 48  1  0  0  0  0
 48 49  1  0  0  0  0
 49 50  1  0  0  0  0
 50 51  2  0  0  0  0
 50 52  1  0  0  0  0
 52 53  1  0  0  0  0
 53 54  1  0  0  0  0
 54 55  1  0  0  0  0
 55 56  1  0  0  0  0
 56 57  1  0  0  0  0
 57 58  1  0  0  0  0
 58 59  1  0  0  0  0
 59 60  1  0  0  0  0
 60 61  1  0  0  0  0
 61 62  1  0  0  0  0
 62 63  1  0  0  0  0
 63 64  1  0  0  0  0
 64 65  1  0  0  0  0
 65 66  1  0  0  0  0
 66 67  1  0  0  0  0
 67 68  1  0  0  0  0
M  END
> <RowID>
1342

> <Original_SMILES>
CCCCCCCCCCCCCCCCCC(=O)OCC(OC(=O)CCCCCCCCCCCCCCCCC)C1OCC(O)C1OC(=O)CCCCCCCCCCCCCCCCC

> <Canonical_QSARr>
CCCCCCCCCCCCCCCCCC(=O)OCC(OC(=O)CCCCCCCCCCCCCCCCC)C1OCC(O)C1OC(=O)CCCCCCCCCCCCCCCCC

> <InChI_Code_QSARr>
InChI=1S/C60H114O8/c1-4-7-10-13-16-19-22-25-28-31-34-37-40-43-46-49-56(62)65-53-55(67-57(63)50-47-44-41-38-35-32-29-26-23-20-17-14-11-8-5-2)60-59(54(61)52-66-60)68-58(64)51-48-45-42-39-36-33-30-27-24-21-18-15-12-9-6-3/h54-55,59-61H,4-53H2,1-3H3

> <InChI Key_QSARr>
IJCWFDPJFXGQBN-UHFFFAOYSA-N

> <Salt_Solvent>


> <Salt_Solvent_ID>
0

> <Number of connected components>
1

$$$$
Molecule_1343
  Mrv2316 01072400032D          

 26 29  0  0  0  0            999 V2000
    4.6224    1.5787    0.0000 O   0  0  0  0  0  0  0  0  0  0  0  0
    4.2868    0.8250    0.0000 C   0  0  0  0  0  0  0  0  0  0  0  0
    3.5724    1.2375    0.0000 O   0  0  0  0  0  0  0  0  0  0  0  0
    4.2868   -0.0000    0.0000 C   0  0  0  0  0  0  0  0  0  0  0  0
    3.5724   -0.4125    0.0000 C   0  0  0  0  0  0  0  0  0  0  0  0
    3.5724   -1.2375    0.0000 C   0  0  0  0  0  0  0  0  0  0  0  0
    4.2868   -1.6500    0.0000 C   0  0  0  0  0  0  0  0  0  0  0  0
    5.0013   -1.2375    0.0000 C   0  0  0  0  0  0  0  0  0  0  0  0
    5.7158   -1.6500    0.0000 C   0  0  0  0  0  0  0  0  0  0  0  0
    6.4302   -1.2375    0.0000 C   0  0  0  0  0  0  0  0  0  0  0  0
    6.4302   -0.4125    0.0000 C   0  0  0  0  0  0  0  0  0  0  0  0
    5.7158    0.0000    0.0000 C   0  0  0  0  0  0  0  0  0  0  0  0
    5.7158    0.8250    0.0000 C   0  0  0  0  0  0  0  0  0  0  0  0
    5.0013    1.2375    0.0000 C   0  0  0  0  0  0  0  0  0  0  0  0
    5.0013    2.0625    0.0000 C   0  0  0  0  0  0  0  0  0  0  0  0
    5.7158    2.4750    0.0000 C   0  0  0  0  0  0  0  0  0  0  0  0
    6.4302    2.0625    0.0000 C   0  0  0  0  0  0  0  0  0  0  0  0
    7.1447    2.4750    0.0000 C   0  0  0  0  0  0  0  0  0  0  0  0
    7.8592    2.0625    0.0000 C   0  0  0  0  0  0  0  0  0  0  0  0
    7.8592    1.2375    0.0000 C   0  0  0  0  0  0  0  0  0  0  0  0
    7.1447    0.8250    0.0000 C   0  0  0  0  0  0  0  0  0  0  0  0
    7.1447    0.0000    0.0000 C   0  0  0  0  0  0  0  0  0  0  0  0
    6.8092   -0.7537    0.0000 O   0  0  0  0  0  0  0  0  0  0  0  0
    7.8592   -0.4125    0.0000 O   0  0  0  0  0  0  0  0  0  0  0  0
    6.4302    1.2375    0.0000 C   0  0  0  0  0  0  0  0  0  0  0  0
    5.0013   -0.4125    0.0000 C   0  0  0  0  0  0  0  0  0  0  0  0
  1  2  1  0  0  0  0
  2  3  2  0  0  0  0
  2  4  1  0  0  0  0
  5  4  1  0  0  0  0
  6  5  2  0  0  0  0
  7  6  1  0  0  0  0
  8  7  2  0  0  0  0
  8  9  1  0  0  0  0
  9 10  2  0  0  0  0
 10 11  1  0  0  0  0
 11 12  2  0  0  0  0
 12 13  1  0  0  0  0
 14 13  2  0  0  0  0
 15 14  1  0  0  0  0
 16 15  2  0  0  0  0
 17 16  1  0  0  0  0
 17 18  2  0  0  0  0
 18 19  1  0  0  0  0
 19 20  2  0  0  0  0
 20 21  1  0  0  0  0
 21 22  1  0  0  0  0
 22 23  1  0  0  0  0
 22 24  2  0  0  0  0
 21 25  2  0  0  0  0
 13 25  1  0  0  0  0
 25 17  1  0  0  0  0
 12 26  1  0  0  0  0
  4 26  2  0  0  0  0
 26  8  1  0  0  0  0
M  END
> <RowID>
1343

> <Original_SMILES>
OC(=O)C1C=CC=C2C=CC=C(C2=1)C1=CC=CC2=CC=CC(=C21)C(O)=O

> <Canonical_QSARr>
OC(=O)C1C=CC=C2C=CC=C(C2=1)C1=CC=CC2=CC=CC(=C21)C(O)=O

> <InChI_Code_QSARr>
InChI=1S/C22H14O4/c23-21(24)17-11-3-7-13-5-1-9-15(19(13)17)16-10-2-6-14-8-4-12-18(20(14)16)22(25)26/h1-12H,(H,23,24)(H,25,26)

> <InChI Key_QSARr>
XGDAODQNSVFBGM-UHFFFAOYSA-N

> <Salt_Solvent>


> <Salt_Solvent_ID>
0

> <Number of connected components>
1

$$$$
Molecule_1345
  Mrv2316 01072400032D          

 16 15  0  0  0  0            999 V2000
    3.5211    2.8579    0.0000 C   0  0  0  0  0  0  0  0  0  0  0  0
    4.2355    3.2704    0.0000 C   0  0  0  0  0  0  0  0  0  0  0  0
    4.2355    4.0954    0.0000 C   0  0  0  0  0  0  0  0  0  0  0  0
    4.9500    2.8579    0.0000 O   0  0  0  0  0  0  0  0  0  0  0  0
    5.6645    3.2704    0.0000 C   0  0  0  0  0  0  0  0  0  0  0  0
    5.6645    4.0954    0.0000 O   0  0  0  0  0  0  0  0  0  0  0  0
    6.3789    2.8579    0.0000 C   0  0  0  0  0  0  0  0  0  0  0  0
    7.0934    3.2704    0.0000 C   0  0  0  0  0  0  0  0  0  0  0  0
    7.8079    2.8579    0.0000 C   0  0  0  0  0  0  0  0  0  0  0  0
    8.5224    3.2704    0.0000 C   0  0  0  0  0  0  0  0  0  0  0  0
    9.2368    2.8579    0.0000 C   0  0  0  0  0  0  0  0  0  0  0  0
    9.2368    2.0329    0.0000 O   0  0  0  0  0  0  0  0  0  0  0  0
    9.9513    3.2704    0.0000 O   0  0  0  0  0  0  0  0  0  0  0  0
   10.6658    2.8579    0.0000 C   0  0  0  0  0  0  0  0  0  0  0  0
   11.3802    3.2704    0.0000 C   0  0  0  0  0  0  0  0  0  0  0  0
   10.6658    2.0329    0.0000 C   0  0  0  0  0  0  0  0  0  0  0  0
  1  2  1  0  0  0  0
  2  3  1  0  0  0  0
  2  4  1  0  0  0  0
  4  5  1  0  0  0  0
  5  6  2  0  0  0  0
  5  7  1  0  0  0  0
  7  8  1  0  0  0  0
  8  9  1  0  0  0  0
  9 10  1  0  0  0  0
 10 11  1  0  0  0  0
 11 12  2  0  0  0  0
 11 13  1  0  0  0  0
 13 14  1  0  0  0  0
 14 15  1  0  0  0  0
 14 16  1  0  0  0  0
M  END
> <RowID>
1345

> <Original_SMILES>
CC(C)OC(=O)CCCCC(=O)OC(C)C

> <Canonical_QSARr>
CC(C)OC(=O)CCCCC(=O)OC(C)C

> <InChI_Code_QSARr>
InChI=1S/C12H22O4/c1-9(2)15-11(13)7-5-6-8-12(14)16-10(3)4/h9-10H,5-8H2,1-4H3

> <InChI Key_QSARr>
ZDQWESQEGGJUCH-UHFFFAOYSA-N

> <Salt_Solvent>


> <Salt_Solvent_ID>
0

> <Number of connected components>
1

$$$$
Molecule_1346
  Mrv2316 01072400032D          

 12 11  0  0  0  0            999 V2000
    1.0461    1.4289    0.0000 C   0  0  0  0  0  0  0  0  0  0  0  0
    1.7605    1.8414    0.0000 C   0  0  0  0  0  0  0  0  0  0  0  0
    1.7605    2.6664    0.0000 C   0  0  0  0  0  0  0  0  0  0  0  0
    2.4750    1.4289    0.0000 C   0  0  0  0  0  0  0  0  0  0  0  0
    3.1895    1.8414    0.0000 C   0  0  0  0  0  0  0  0  0  0  0  0
    3.1895    2.6664    0.0000 C   0  0  0  0  0  0  0  0  0  0  0  0
    3.9039    1.4289    0.0000 O   0  0  0  0  0  0  0  0  0  0  0  0
    4.6184    1.8414    0.0000 C   0  0  0  0  0  0  0  0  0  0  0  0
    4.6184    2.6664    0.0000 O   0  0  0  0  0  0  0  0  0  0  0  0
    5.3329    1.4289    0.0000 C   0  0  0  0  0  0  0  0  0  0  0  0
    6.0474    1.8414    0.0000 C   0  0  0  0  0  0  0  0  0  0  0  0
    5.3329    0.6039    0.0000 C   0  0  0  0  0  0  0  0  0  0  0  0
  1  2  1  0  0  0  0
  2  3  2  0  0  0  0
  2  4  1  0  0  0  0
  4  5  1  0  0  0  0
  5  6  1  0  0  0  0
  5  7  1  0  0  0  0
  7  8  1  0  0  0  0
  8  9  2  0  0  0  0
  8 10  1  0  0  0  0
 10 11  1  0  0  0  0
 10 12  1  0  0  0  0
M  END
> <RowID>
1346

> <Original_SMILES>
CC(=C)CC(C)OC(=O)C(C)C

> <Canonical_QSARr>
CC(=C)CC(C)OC(=O)C(C)C

> <InChI_Code_QSARr>
InChI=1S/C10H18O2/c1-7(2)6-9(5)12-10(11)8(3)4/h8-9H,1,6H2,2-5H3

> <InChI Key_QSARr>
JJWWUTCHOAKZPR-UHFFFAOYSA-N

> <Salt_Solvent>


> <Salt_Solvent_ID>
0

> <Number of connected components>
1

$$$$
Molecule_1347
  Mrv2316 01072400032D          

 10  9  0  0  0  0            999 V2000
    2.9980    2.5559    0.0000 C   0  0  0  0  0  0  0  0  0  0  0  0
    3.7125    2.1434    0.0000 C   0  0  0  0  0  0  0  0  0  0  0  0
    4.4270    2.5559    0.0000 C   0  0  0  0  0  0  0  0  0  0  0  0
    5.1414    2.1434    0.0000 C   0  0  0  0  0  0  0  0  0  0  0  0
    5.8559    2.5559    0.0000 C   0  0  0  0  0  0  0  0  0  0  0  0
    6.5704    2.1434    0.0000 C   0  0  0  0  0  0  0  0  0  0  0  0
    7.2849    2.5559    0.0000 C   0  0  0  0  0  0  0  0  0  0  0  0
    7.9993    2.1434    0.0000 C   0  0  0  0  0  0  0  0  0  0  0  0
    8.7138    2.5559    0.0000 O   0  0  0  0  0  0  0  0  0  0  0  0
    7.9993    1.3184    0.0000 O   0  0  0  0  0  0  0  0  0  0  0  0
  1  2  1  0  0  0  0
  2  3  1  0  0  0  0
  3  4  1  0  0  0  0
  4  5  1  0  0  0  0
  5  6  1  0  0  0  0
  6  7  1  0  0  0  0
  7  8  1  0  0  0  0
  8  9  2  0  0  0  0
  8 10  1  0  0  0  0
M  END
> <RowID>
1347

> <Original_SMILES>
CCCCCCCC(O)=O.OC(CO)CO

> <Canonical_QSARr>
CCCCCCCC(O)=O

> <InChI_Code_QSARr>
InChI=1S/C8H16O2/c1-2-3-4-5-6-7-8(9)10/h2-7H2,1H3,(H,9,10)

> <InChI Key_QSARr>
WWZKQHOCKIZLMA-UHFFFAOYSA-N

> <Salt_Solvent>
OC(CO)CO

> <Salt_Solvent_ID>
2122

> <Number of connected components>
2

$$$$
Molecule_1348
  Mrv2316 01072400032D          

 12 12  0  0  0  0            999 V2000
    1.6671    2.8875    0.0000 C   0  0  0  0  0  0  0  0  0  0  0  0
    0.9526    2.4750    0.0000 C   0  0  0  0  0  0  0  0  0  0  0  0
    0.5401    3.1895    0.0000 C   0  0  0  0  0  0  0  0  0  0  0  0
    1.3651    1.7605    0.0000 O   0  0  0  0  0  0  0  0  0  0  0  0
    0.2382    2.0625    0.0000 C   0  0  0  0  0  0  0  0  0  0  0  0
   -0.4763    2.4750    0.0000 O   0  0  0  0  0  0  0  0  0  0  0  0
    0.2382    1.2375    0.0000 C   0  0  0  0  0  0  0  0  0  0  0  0
   -0.4763    0.8250    0.0000 C   0  0  0  0  0  0  0  0  0  0  0  0
   -0.4763   -0.0000    0.0000 C   0  0  0  0  0  0  0  0  0  0  0  0
    0.2382   -0.4125    0.0000 C   0  0  0  0  0  0  0  0  0  0  0  0
    0.9526    0.0000    0.0000 C   0  0  0  0  0  0  0  0  0  0  0  0
    0.9526    0.8250    0.0000 C   0  0  0  0  0  0  0  0  0  0  0  0
  1  2  1  0  0  0  0
  2  3  1  0  0  0  0
  2  4  1  0  0  0  0
  2  5  1  0  0  0  0
  5  6  2  0  0  0  0
  5  7  1  0  0  0  0
  8  7  1  0  0  0  0
  9  8  2  0  0  0  0
 10  9  1  0  0  0  0
 11 10  2  0  0  0  0
 12 11  1  0  0  0  0
  7 12  2  0  0  0  0
M  END
> <RowID>
1348

> <Original_SMILES>
CC(C)(O)C(=O)C1C=CC=CC=1

> <Canonical_QSARr>
CC(C)(O)C(=O)C1C=CC=CC=1

> <InChI_Code_QSARr>
InChI=1S/C10H12O2/c1-10(2,12)9(11)8-6-4-3-5-7-8/h3-7,12H,1-2H3

> <InChI Key_QSARr>
XMLYCEVDHLAQEL-UHFFFAOYSA-N

> <Salt_Solvent>


> <Salt_Solvent_ID>
0

> <Number of connected components>
1

$$$$
Molecule_1349
  Mrv2316 01072400032D          

 13 14  0  0  0  0            999 V2000
    2.7845    2.3479    0.0000 C   0  0  0  0  0  0  0  0  0  0  0  0
    2.0701    1.9354    0.0000 N   0  0  0  0  0  0  0  0  0  0  0  0
    1.3556    2.3479    0.0000 C   0  0  0  0  0  0  0  0  0  0  0  0
    1.3556    3.1729    0.0000 O   0  0  0  0  0  0  0  0  0  0  0  0
    0.6411    1.9354    0.0000 C   0  0  0  0  0  0  0  0  0  0  0  0
   -0.1435    2.1903    0.0000 N   0  0  0  0  0  0  0  0  0  0  0  0
   -0.6284    1.5229    0.0000 C   0  0  0  0  0  0  0  0  0  0  0  0
   -0.1435    0.8555    0.0000 N   0  0  0  0  0  0  0  0  0  0  0  0
    0.6411    1.1104    0.0000 C   0  0  0  0  0  0  0  0  0  0  0  0
    1.3556    0.6979    0.0000 N   0  0  0  0  0  0  0  0  0  0  0  0
    1.3556   -0.1271    0.0000 C   0  0  0  0  0  0  0  0  0  0  0  0
    2.0701    1.1104    0.0000 C   0  0  0  0  0  0  0  0  0  0  0  0
    2.7845    0.6979    0.0000 O   0  0  0  0  0  0  0  0  0  0  0  0
  1  2  1  0  0  0  0
  3  2  1  0  0  0  0
  3  4  2  0  0  0  0
  5  3  1  0  0  0  0
  5  6  1  0  0  0  0
  6  7  1  0  0  0  0
  7  8  2  0  0  0  0
  8  9  1  0  0  0  0
  9  5  2  0  0  0  0
 10  9  1  0  0  0  0
 10 11  1  0  0  0  0
 12 10  1  0  0  0  0
  2 12  1  0  0  0  0
 12 13  2  0  0  0  0
M  END
> <RowID>
1349

> <Original_SMILES>
CN1C(=O)C2NC=NC=2N(C)C1=O

> <Canonical_QSARr>
CN1C(=O)C2NC=NC=2N(C)C1=O

> <InChI_Code_QSARr>
InChI=1S/C7H8N4O2/c1-10-5-4(8-3-9-5)6(12)11(2)7(10)13/h3H,1-2H3,(H,8,9)

> <InChI Key_QSARr>
ZFXYFBGIUFBOJW-UHFFFAOYSA-N

> <Salt_Solvent>


> <Salt_Solvent_ID>
0

> <Number of connected components>
1

$$$$
Molecule_1350
  Mrv2316 01072400032D          

  4  3  0  0  0  0            999 V2000
    2.0625   -0.7145    0.0000 O   0  0  0  0  0  0  0  0  0  0  0  0
    1.2375   -0.7145    0.0000 C   0  0  0  0  0  0  0  0  0  0  0  0
    0.8250   -0.0000    0.0000 C   0  0  0  0  0  0  0  0  0  0  0  0
    0.0000   -0.0000    0.0000 O   0  0  0  0  0  0  0  0  0  0  0  0
  1  2  1  0  0  0  0
  2  3  1  0  0  0  0
  3  4  1  0  0  0  0
M  END
> <RowID>
1350

> <Original_SMILES>
OCCO

> <Canonical_QSARr>
OCCO

> <InChI_Code_QSARr>
InChI=1S/C2H6O2/c3-1-2-4/h3-4H,1-2H2

> <InChI Key_QSARr>
LYCAIKOWRPUZTN-UHFFFAOYSA-N

> <Salt_Solvent>


> <Salt_Solvent_ID>
0

> <Number of connected components>
1

$$$$
Molecule_1351
  Mrv2316 01072400032D          

 24 24  0  0  0  0            999 V2000
    3.4047   -1.4400    0.0000 C   0  0  0  0  0  0  0  0  0  0  0  0
    3.5762   -0.6331    0.0000 N   0  0  0  0  0  0  0  0  0  0  0  0
    4.3609   -0.3781    0.0000 C   0  0  0  0  0  0  0  0  0  0  0  0
    2.9632   -0.0810    0.0000 C   0  0  0  0  0  0  0  0  0  0  0  0
    2.1785   -0.3360    0.0000 C   0  0  0  0  0  0  0  0  0  0  0  0
    1.5111    0.1490    0.0000 C   0  0  0  0  0  0  0  0  0  0  0  0
    1.5111    0.9740    0.0000 C   0  0  0  0  0  0  0  0  0  0  0  0
    0.7966    1.3865    0.0000 O   0  0  0  0  0  0  0  0  0  0  0  0
    2.2256    1.3865    0.0000 O   0  0  0  0  0  0  0  0  0  0  0  0
    2.2256    2.2115    0.0000 C   0  0  0  0  0  0  0  0  0  0  0  0
    3.0506    2.2115    0.0000 C   0  0  0  0  0  0  0  0  0  0  0  0
    1.4006    2.2115    0.0000 C   0  0  0  0  0  0  0  0  0  0  0  0
    2.2256    3.0365    0.0000 C   0  0  0  0  0  0  0  0  0  0  0  0
    0.8437   -0.3360    0.0000 N   0  0  0  0  0  0  0  0  0  0  0  0
    0.0590   -0.0810    0.0000 C   0  0  0  0  0  0  0  0  0  0  0  0
   -0.5541   -0.6331    0.0000 O   0  0  0  0  0  0  0  0  0  0  0  0
   -0.1125    0.7259    0.0000 O   0  0  0  0  0  0  0  0  0  0  0  0
   -0.8971    0.9809    0.0000 C   0  0  0  0  0  0  0  0  0  0  0  0
   -1.6817    1.2358    0.0000 C   0  0  0  0  0  0  0  0  0  0  0  0
   -0.6422    1.7655    0.0000 C   0  0  0  0  0  0  0  0  0  0  0  0
   -1.1521    0.1963    0.0000 C   0  0  0  0  0  0  0  0  0  0  0  0
    1.0986   -1.1206    0.0000 C   0  0  0  0  0  0  0  0  0  0  0  0
    1.9236   -1.1206    0.0000 C   0  0  0  0  0  0  0  0  0  0  0  0
    2.4085   -1.7880    0.0000 O   0  0  0  0  0  0  0  0  0  0  0  0
  1  2  1  0  0  0  0
  2  3  1  0  0  0  0
  4  2  1  4  0  0  0
  4  5  2  0  0  0  0
  6  5  1  0  0  0  0
  6  7  1  0  0  0  0
  7  8  2  0  0  0  0
  7  9  1  0  0  0  0
  9 10  1  0  0  0  0
 10 11  1  0  0  0  0
 10 12  1  0  0  0  0
 10 13  1  0  0  0  0
 14  6  1  0  0  0  0
 14 15  1  0  0  0  0
 15 16  2  0  0  0  0
 15 17  1  0  0  0  0
 17 18  1  0  0  0  0
 18 19  1  0  0  0  0
 18 20  1  0  0  0  0
 18 21  1  0  0  0  0
 22 14  1  0  0  0  0
 23 22  1  0  0  0  0
  5 23  1  0  0  0  0
 23 24  2  0  0  0  0
M  END
> <RowID>
1351

> <Original_SMILES>
CN(C)C=C1C(C(=O)OC(C)(C)C)N(CC1=O)C(=O)OC(C)(C)C

> <Canonical_QSARr>
CN(C)C=C1C(C(=O)OC(C)(C)C)N(CC1=O)C(=O)OC(C)(C)C

> <InChI_Code_QSARr>
InChI=1S/C17H28N2O5/c1-16(2,3)23-14(21)13-11(9-18(7)8)12(20)10-19(13)15(22)24-17(4,5)6/h9,13H,10H2,1-8H3

> <InChI Key_QSARr>
PPZKPPCVXOWYLX-UHFFFAOYSA-N

> <Salt_Solvent>


> <Salt_Solvent_ID>
0

> <Number of connected components>
1

$$$$
Molecule_1352
  Mrv2316 01072400032D          

 25 27  0  0  0  0            999 V2000
   -0.4001   -6.6000    0.0000 O   0  5  0  0  0  0  0  0  0  0  0  0
    0.3144   -6.1875    0.0000 N   0  3  0  0  0  0  0  0  0  0  0  0
    1.0288   -6.6000    0.0000 O   0  0  0  0  0  0  0  0  0  0  0  0
    0.3144   -5.3625    0.0000 C   0  0  0  0  0  0  0  0  0  0  0  0
    1.0288   -4.9500    0.0000 C   0  0  0  0  0  0  0  0  0  0  0  0
    1.0288   -4.1250    0.0000 C   0  0  0  0  0  0  0  0  0  0  0  0
    1.7433   -3.7125    0.0000 N   0  3  0  0  0  0  0  0  0  0  0  0
    1.7433   -2.8875    0.0000 O   0  5  0  0  0  0  0  0  0  0  0  0
    2.4578   -4.1250    0.0000 O   0  0  0  0  0  0  0  0  0  0  0  0
    0.3144   -3.7125    0.0000 C   0  0  0  0  0  0  0  0  0  0  0  0
    0.3144   -2.8875    0.0000 N   0  0  0  0  0  0  0  0  0  0  0  0
    1.0288   -2.4750    0.0000 N   0  0  0  0  0  0  0  0  0  0  0  0
    1.0288   -1.6500    0.0000 C   0  0  0  0  0  0  0  0  0  0  0  0
    0.3144   -1.2375    0.0000 C   0  0  0  0  0  0  0  0  0  0  0  0
   -0.4001   -1.6500    0.0000 O   0  0  0  0  0  0  0  0  0  0  0  0
    0.3144   -0.4125    0.0000 C   0  0  0  0  0  0  0  0  0  0  0  0
    1.0288   -0.0000    0.0000 C   0  0  0  0  0  0  0  0  0  0  0  0
    1.7433   -0.4125    0.0000 C   0  0  0  0  0  0  0  0  0  0  0  0
    2.4578    0.0000    0.0000 C   0  0  0  0  0  0  0  0  0  0  0  0
    3.1723   -0.4125    0.0000 C   0  0  0  0  0  0  0  0  0  0  0  0
    3.1723   -1.2375    0.0000 C   0  0  0  0  0  0  0  0  0  0  0  0
    2.4578   -1.6500    0.0000 C   0  0  0  0  0  0  0  0  0  0  0  0
    1.7433   -1.2375    0.0000 C   0  0  0  0  0  0  0  0  0  0  0  0
   -0.4001   -4.1250    0.0000 C   0  0  0  0  0  0  0  0  0  0  0  0
   -0.4001   -4.9500    0.0000 C   0  0  0  0  0  0  0  0  0  0  0  0
  1  2  1  0  0  0  0
  2  3  2  0  0  0  0
  2  4  1  0  0  0  0
  5  4  2  0  0  0  0
  6  5  1  0  0  0  0
  6  7  1  0  0  0  0
  7  8  1  0  0  0  0
  7  9  2  0  0  0  0
 10  6  2  0  0  0  0
 11 10  1  4  0  0  0
 11 12  2  0  0  0  0
 12 13  1  0  0  0  0
 14 13  2  0  0  0  0
 14 15  1  0  0  0  0
 16 14  1  0  0  0  0
 17 16  2  0  0  0  0
 18 17  1  0  0  0  0
 18 19  2  0  0  0  0
 19 20  1  0  0  0  0
 20 21  2  0  0  0  0
 21 22  1  0  0  0  0
 22 23  2  0  0  0  0
 13 23  1  0  0  0  0
 23 18  1  0  0  0  0
 24 10  1  0  0  0  0
 25 24  2  0  0  0  0
  4 25  1  0  0  0  0
M  CHG  4   1  -1   2   1   7   1   8  -1
M  END
> <RowID>
1352

> <Original_SMILES>
[O-][N+](=O)C1=CC(=C(C=C1)N=NC1=C(O)C=CC2=CC=CC=C21)[N+]([O-])=O

> <Canonical_QSARr>
[O-][N+](=O)C1=CC(=C(C=C1)N=NC1=C(O)C=CC2=CC=CC=C21)[N+]([O-])=O

> <InChI_Code_QSARr>
InChI=1S/C16H10N4O5/c21-15-8-5-10-3-1-2-4-12(10)16(15)18-17-13-7-6-11(19(22)23)9-14(13)20(24)25/h1-9,21H

> <InChI Key_QSARr>
HBHZKFOUIUMKHV-UHFFFAOYSA-N

> <Salt_Solvent>


> <Salt_Solvent_ID>
0

> <Number of connected components>
1

$$$$
Molecule_1353
  Mrv2316 01072400032D          

 27 31  0  0  0  0            999 V2000
    1.0033    3.5988    0.0000 O   0  0  0  0  0  0  0  0  0  0  0  0
    1.3391    2.8452    0.0000 C   0  0  0  0  0  0  0  0  0  0  0  0
    0.8543    2.1777    0.0000 C   0  0  0  0  0  0  0  0  0  0  0  0
    1.1901    1.4241    0.0000 C   0  0  0  0  0  0  0  0  0  0  0  0
    2.0106    1.3381    0.0000 C   0  0  0  0  0  0  0  0  0  0  0  0
    2.4954    2.0057    0.0000 C   0  0  0  0  0  0  0  0  0  0  0  0
    3.3159    1.9197    0.0000 O   0  0  0  0  0  0  0  0  0  0  0  0
    3.6516    1.1661    0.0000 C   0  0  0  0  0  0  0  0  0  0  0  0
    3.1669    0.4985    0.0000 C   0  0  0  0  0  0  0  0  0  0  0  0
    2.3464    0.5845    0.0000 C   0  0  0  0  0  0  0  0  0  0  0  0
    2.6016   -0.2000    0.0000 O   0  0  0  0  0  0  0  0  0  0  0  0
    1.9343   -0.6852    0.0000 C   0  0  0  0  0  0  0  0  0  0  0  0
    1.9345   -1.5102    0.0000 O   0  0  0  0  0  0  0  0  0  0  0  0
    1.2667   -0.2004    0.0000 C   0  0  0  0  0  0  0  0  0  0  0  0
    0.4598   -0.3722    0.0000 C   0  0  0  0  0  0  0  0  0  0  0  0
   -0.0924    0.2407    0.0000 C   0  0  0  0  0  0  0  0  0  0  0  0
    0.1623    1.0254    0.0000 C   0  0  0  0  0  0  0  0  0  0  0  0
    0.9692    1.1972    0.0000 C   0  0  0  0  0  0  0  0  0  0  0  0
    1.5214    0.5843    0.0000 C   0  0  0  0  0  0  0  0  0  0  0  0
    3.5027   -0.2551    0.0000 C   0  0  0  0  0  0  0  0  0  0  0  0
    4.3232   -0.3411    0.0000 C   0  0  0  0  0  0  0  0  0  0  0  0
    4.8079    0.3265    0.0000 C   0  0  0  0  0  0  0  0  0  0  0  0
    5.6284    0.2405    0.0000 O   0  0  0  0  0  0  0  0  0  0  0  0
    4.4721    1.0801    0.0000 C   0  0  0  0  0  0  0  0  0  0  0  0
    4.9569    1.7477    0.0000 Br  0  0  0  0  0  0  0  0  0  0  0  0
    2.1596    2.7592    0.0000 C   0  0  0  0  0  0  0  0  0  0  0  0
    2.6443    3.4268    0.0000 Br  0  0  0  0  0  0  0  0  0  0  0  0
  1  2  1  0  0  0  0
  3  2  1  0  0  0  0
  4  3  2  0  0  0  0
  5  4  1  0  0  0  0
  5  6  2  0  0  0  0
  6  7  1  0  0  0  0
  7  8  1  0  0  0  0
  9  8  2  0  0  0  0
  9 10  1  0  0  0  0
 10  5  1  0  0  0  0
 11 10  1  0  0  0  0
 12 11  1  0  0  0  0
 12 13  2  0  0  0  0
 14 12  1  0  0  0  0
 14 15  2  0  0  0  0
 15 16  1  0  0  0  0
 16 17  2  0  0  0  0
 17 18  1  0  0  0  0
 18 19  2  0  0  0  0
 10 19  1  0  0  0  0
 19 14  1  0  0  0  0
 20  9  1  0  0  0  0
 21 20  2  0  0  0  0
 22 21  1  0  0  0  0
 22 23  1  0  0  0  0
 24 22  2  0  0  0  0
  8 24  1  0  0  0  0
 24 25  1  0  0  0  0
 26  6  1  0  0  0  0
  2 26  2  0  0  0  0
 26 27  1  0  0  0  0
M  END
> <RowID>
1353

> <Original_SMILES>
OC1C=CC2=C(OC3=C(C=CC(O)=C3Br)C32OC(=O)C2=CC=CC=C32)C=1Br

> <Canonical_QSARr>
OC1C=CC2=C(OC3=C(C=CC(O)=C3Br)C32OC(=O)C2=CC=CC=C32)C=1Br

> <InChI_Code_QSARr>
InChI=1S/C20H10Br2O5/c21-15-13(23)7-5-11-17(15)26-18-12(6-8-14(24)16(18)22)20(11)10-4-2-1-3-9(10)19(25)27-20/h1-8,23-24H

> <InChI Key_QSARr>
ZDTNHRWWURISAA-UHFFFAOYSA-N

> <Salt_Solvent>


> <Salt_Solvent_ID>
0

> <Number of connected components>
1

$$$$
Molecule_1354
  Mrv2316 01072400032D          

 24 23  0  0  0  0            999 V2000
    7.9480   -5.4138    0.0000 C   0  0  0  0  0  0  0  0  0  0  0  0
    8.6625   -5.0013    0.0000 C   0  0  0  0  0  0  0  0  0  0  0  0
    9.3770   -5.4138    0.0000 C   0  0  0  0  0  0  0  0  0  0  0  0
   10.0914   -5.0013    0.0000 C   0  0  0  0  0  0  0  0  0  0  0  0
   10.8059   -5.4138    0.0000 C   0  0  0  0  0  0  0  0  0  0  0  0
   11.5204   -5.0013    0.0000 C   0  0  0  0  0  0  0  0  0  0  0  0
   12.2349   -5.4138    0.0000 C   0  0  0  0  0  0  0  0  0  0  0  0
   12.9493   -5.0013    0.0000 C   0  0  0  0  0  0  0  0  0  0  0  0
   13.6638   -5.4138    0.0000 C   0  0  0  0  0  0  0  0  0  0  0  0
   14.3783   -5.0013    0.0000 C   0  0  0  0  0  0  0  0  0  0  0  0
   15.0927   -5.4138    0.0000 C   0  0  0  0  0  0  0  0  0  0  0  0
   15.8072   -5.0013    0.0000 C   0  0  0  0  0  0  0  0  0  0  0  0
   16.5217   -5.4138    0.0000 C   0  0  0  0  0  0  0  0  0  0  0  0
   17.2362   -5.0013    0.0000 C   0  0  0  0  0  0  0  0  0  0  0  0
   17.9506   -5.4138    0.0000 C   0  0  0  0  0  0  0  0  0  0  0  0
   18.6651   -5.0013    0.0000 C   0  0  0  0  0  0  0  0  0  0  0  0
   19.3796   -5.4138    0.0000 C   0  0  0  0  0  0  0  0  0  0  0  0
   20.0940   -5.0013    0.0000 C   0  0  0  0  0  0  0  0  0  0  0  0
   20.8085   -5.4138    0.0000 P   0  0  0  0  0  0  0  0  0  0  0  0
   20.3960   -6.1283    0.0000 O   0  0  0  0  0  0  0  0  0  0  0  0
   21.5230   -5.8263    0.0000 O   0  0  0  0  0  0  0  0  0  0  0  0
   22.2374   -5.4138    0.0000 C   0  0  0  0  0  0  0  0  0  0  0  0
   21.2210   -4.6993    0.0000 O   0  0  0  0  0  0  0  0  0  0  0  0
   22.0460   -4.6993    0.0000 C   0  0  0  0  0  0  0  0  0  0  0  0
  1  2  1  0  0  0  0
  2  3  1  0  0  0  0
  3  4  1  0  0  0  0
  4  5  1  0  0  0  0
  5  6  1  0  0  0  0
  6  7  1  0  0  0  0
  7  8  1  0  0  0  0
  8  9  1  0  0  0  0
  9 10  1  0  0  0  0
 10 11  1  0  0  0  0
 11 12  1  0  0  0  0
 12 13  1  0  0  0  0
 13 14  1  0  0  0  0
 14 15  1  0  0  0  0
 15 16  1  0  0  0  0
 16 17  1  0  0  0  0
 17 18  1  0  0  0  0
 18 19  1  0  0  0  0
 19 20  2  0  0  0  0
 19 21  1  0  0  0  0
 21 22  1  0  0  0  0
 19 23  1  0  0  0  0
 23 24  1  0  0  0  0
M  END
> <RowID>
1354

> <Original_SMILES>
CCCCCCCCCCCCCCCCCCP(=O)(OC)OC

> <Canonical_QSARr>
CCCCCCCCCCCCCCCCCCP(=O)(OC)OC

> <InChI_Code_QSARr>
InChI=1S/C20H43O3P/c1-4-5-6-7-8-9-10-11-12-13-14-15-16-17-18-19-20-24(21,22-2)23-3/h4-20H2,1-3H3

> <InChI Key_QSARr>
FPYLHOQPWCQAIJ-UHFFFAOYSA-N

> <Salt_Solvent>


> <Salt_Solvent_ID>
0

> <Number of connected components>
1

$$$$
Molecule_1355
  Mrv2316 01072400032D          

 26 27  0  0  0  0            999 V2000
    2.8579   -4.9183    0.0000 C   0  0  0  0  0  0  0  0  0  0  0  0
    2.1434   -5.3308    0.0000 C   0  0  0  0  0  0  0  0  0  0  0  0
    2.1434   -6.1558    0.0000 N   0  0  0  0  0  0  0  0  0  0  0  0
    1.4289   -6.5683    0.0000 C   0  0  0  0  0  0  0  0  0  0  0  0
    0.7145   -6.1558    0.0000 C   0  0  0  0  0  0  0  0  0  0  0  0
    0.0000   -6.5683    0.0000 C   0  0  0  0  0  0  0  0  0  0  0  0
    0.0000   -7.3933    0.0000 C   0  0  0  0  0  0  0  0  0  0  0  0
    0.7145   -7.8058    0.0000 C   0  0  0  0  0  0  0  0  0  0  0  0
    1.4289   -7.3933    0.0000 C   0  0  0  0  0  0  0  0  0  0  0  0
    1.4289   -4.9183    0.0000 O   0  0  0  0  0  0  0  0  0  0  0  0
    2.8579   -4.0933    0.0000 N   0  0  0  0  0  0  0  0  0  0  0  0
    3.5724   -3.6808    0.0000 N   0  0  0  0  0  0  0  0  0  0  0  0
    3.5724   -2.8558    0.0000 C   0  0  0  0  0  0  0  0  0  0  0  0
    4.2868   -2.4433    0.0000 C   0  0  0  0  0  0  0  0  0  0  0  0
    4.2868   -1.6183    0.0000 C   0  0  0  0  0  0  0  0  0  0  0  0
    5.0013   -1.2058    0.0000 S   0  0  0  0  0  0  0  0  0  0  0  0
    5.7158   -0.7933    0.0000 O   0  0  0  0  0  0  0  0  0  0  0  0
    5.4138   -1.9203    0.0000 O   0  0  0  0  0  0  0  0  0  0  0  0
    4.5888   -0.4913    0.0000 N   0  0  0  0  0  0  0  0  0  0  0  0
    3.5724   -1.2058    0.0000 C   0  0  0  0  0  0  0  0  0  0  0  0
    2.8579   -1.6183    0.0000 C   0  0  0  0  0  0  0  0  0  0  0  0
    2.8579   -2.4433    0.0000 C   0  0  0  0  0  0  0  0  0  0  0  0
    2.1434   -2.8558    0.0000 O   0  0  0  0  0  0  0  0  0  0  0  0
    3.5724   -5.3308    0.0000 C   0  0  0  0  0  0  0  0  0  0  0  0
    4.2868   -4.9183    0.0000 C   0  0  0  0  0  0  0  0  0  0  0  0
    3.5724   -6.1558    0.0000 O   0  0  0  0  0  0  0  0  0  0  0  0
  1  2  1  0  0  0  0
  2  3  1  0  0  0  0
  3  4  1  0  0  0  0
  5  4  2  0  0  0  0
  6  5  1  0  0  0  0
  7  6  2  0  0  0  0
  8  7  1  0  0  0  0
  9  8  2  0  0  0  0
  4  9  1  0  0  0  0
  2 10  2  0  0  0  0
 11  1  1  4  0  0  0
 11 12  2  0  0  0  0
 12 13  1  0  0  0  0
 14 13  1  0  0  0  0
 15 14  2  0  0  0  0
 15 16  1  0  0  0  0
 16 17  2  0  0  0  0
 16 18  2  0  0  0  0
 16 19  1  0  0  0  0
 20 15  1  0  0  0  0
 21 20  2  0  0  0  0
 22 21  1  0  0  0  0
 13 22  2  0  0  0  0
 22 23  1  0  0  0  0
  1 24  1  0  0  0  0
 24 25  1  0  0  0  0
 24 26  2  0  0  0  0
M  END
> <RowID>
1355

> <Original_SMILES>
[Na+].[Co+3].CC(=O)[C-](N=NC1=CC(=CC=C1[O-])S(N)(=O)=O)C(=O)NC1C=CC=CC=1.CC(=O)[C-](N=NC1=CC(=CC=C1[O-])S(N)(=O)=O)C(=O)NC1C=CC=CC=1

> <Canonical_QSARr>
CC(=O)C(N=NC1C=C(C=CC=1O)S(N)(=O)=O)C(=O)NC1C=CC=CC=1

> <InChI_Code_QSARr>
InChI=1S/C16H16N4O5S/c1-10(21)15(16(23)18-11-5-3-2-4-6-11)20-19-13-9-12(26(17,24)25)7-8-14(13)22/h2-9,15,22H,1H3,(H,18,23)(H2,17,24,25)

> <InChI Key_QSARr>
WSXBCVNSUMXNCM-UHFFFAOYSA-N

> <Salt_Solvent>
[Na+].[Co+3]

> <Salt_Solvent_ID>
190

> <Number of connected components>
4

$$$$
Molecule_1356
  Mrv2316 01072400032D          

 10  9  0  0  0  0            999 V2000
    2.2836    2.1434    0.0000 C   0  0  0  0  0  0  0  0  0  0  0  0
    2.9980    2.5559    0.0000 C   0  0  0  0  0  0  0  0  0  0  0  0
    3.7125    2.1434    0.0000 C   0  0  0  0  0  0  0  0  0  0  0  0
    4.4270    2.5559    0.0000 C   0  0  0  0  0  0  0  0  0  0  0  0
    5.1414    2.1434    0.0000 C   0  0  0  0  0  0  0  0  0  0  0  0
    5.8559    2.5559    0.0000 C   0  0  0  0  0  0  0  0  0  0  0  0
    6.5704    2.1434    0.0000 O   0  0  0  0  0  0  0  0  0  0  0  0
    7.2849    2.5559    0.0000 C   0  0  0  0  0  0  0  0  0  0  0  0
    7.9993    2.1434    0.0000 C   0  0  0  0  0  0  0  0  0  0  0  0
    8.7138    2.5559    0.0000 O   0  0  0  0  0  0  0  0  0  0  0  0
  1  2  1  0  0  0  0
  2  3  1  0  0  0  0
  3  4  1  0  0  0  0
  4  5  1  0  0  0  0
  5  6  1  0  0  0  0
  6  7  1  0  0  0  0
  7  8  1  0  0  0  0
  8  9  1  0  0  0  0
  9 10  1  0  0  0  0
M  END
> <RowID>
1356

> <Original_SMILES>
CCCCCCOCCO

> <Canonical_QSARr>
CCCCCCOCCO

> <InChI_Code_QSARr>
InChI=1S/C8H18O2/c1-2-3-4-5-7-10-8-6-9/h9H,2-8H2,1H3

> <InChI Key_QSARr>
UPGSWASWQBLSKZ-UHFFFAOYSA-N

> <Salt_Solvent>


> <Salt_Solvent_ID>
0

> <Number of connected components>
1

$$$$
Molecule_1357
  Mrv2316 01072400032D          

 26 25  0  0  0  0            999 V2000
    8.4710    5.7158    0.0000 C   0  0  0  0  0  0  0  0  0  0  0  0
    9.1855    6.1283    0.0000 C   0  0  0  0  0  0  0  0  0  0  0  0
    9.9000    5.7158    0.0000 C   0  0  0  0  0  0  0  0  0  0  0  0
   10.6145    6.1283    0.0000 C   0  0  0  0  0  0  0  0  0  0  0  0
   11.3289    5.7158    0.0000 C   0  0  0  0  0  0  0  0  0  0  0  0
   12.0434    6.1283    0.0000 C   0  0  0  0  0  0  0  0  0  0  0  0
   12.7579    5.7158    0.0000 O   0  0  0  0  0  0  0  0  0  0  0  0
   13.4723    6.1283    0.0000 C   0  0  0  0  0  0  0  0  0  0  0  0
   13.4723    6.9533    0.0000 O   0  0  0  0  0  0  0  0  0  0  0  0
   14.1868    5.7158    0.0000 C   0  0  0  0  0  0  0  0  0  0  0  0
   14.9013    6.1283    0.0000 C   0  0  0  0  0  0  0  0  0  0  0  0
   15.6158    5.7158    0.0000 C   0  0  0  0  0  0  0  0  0  0  0  0
   16.3302    6.1283    0.0000 C   0  0  0  0  0  0  0  0  0  0  0  0
   17.0447    5.7158    0.0000 C   0  0  0  0  0  0  0  0  0  0  0  0
   17.0447    4.8908    0.0000 O   0  0  0  0  0  0  0  0  0  0  0  0
   17.7592    6.1283    0.0000 O   0  0  0  0  0  0  0  0  0  0  0  0
   18.4736    5.7158    0.0000 C   0  0  0  0  0  0  0  0  0  0  0  0
   19.1881    6.1283    0.0000 C   0  0  0  0  0  0  0  0  0  0  0  0
   19.9026    5.7158    0.0000 C   0  0  0  0  0  0  0  0  0  0  0  0
   20.6170    6.1283    0.0000 C   0  0  0  0  0  0  0  0  0  0  0  0
   21.3315    5.7158    0.0000 C   0  0  0  0  0  0  0  0  0  0  0  0
   22.0460    6.1283    0.0000 C   0  0  0  0  0  0  0  0  0  0  0  0
   19.1881    6.9533    0.0000 C   0  0  0  0  0  0  0  0  0  0  0  0
   19.9026    7.3658    0.0000 C   0  0  0  0  0  0  0  0  0  0  0  0
   11.3289    4.8908    0.0000 C   0  0  0  0  0  0  0  0  0  0  0  0
   12.0434    4.4783    0.0000 C   0  0  0  0  0  0  0  0  0  0  0  0
  1  2  1  0  0  0  0
  2  3  1  0  0  0  0
  3  4  1  0  0  0  0
  4  5  1  0  0  0  0
  5  6  1  0  0  0  0
  6  7  1  0  0  0  0
  7  8  1  0  0  0  0
  8  9  2  0  0  0  0
  8 10  1  0  0  0  0
 10 11  1  0  0  0  0
 11 12  1  0  0  0  0
 12 13  1  0  0  0  0
 13 14  1  0  0  0  0
 14 15  2  0  0  0  0
 14 16  1  0  0  0  0
 16 17  1  0  0  0  0
 17 18  1  0  0  0  0
 18 19  1  0  0  0  0
 19 20  1  0  0  0  0
 20 21  1  0  0  0  0
 21 22  1  0  0  0  0
 18 23  1  0  0  0  0
 23 24  1  0  0  0  0
  5 25  1  0  0  0  0
 25 26  1  0  0  0  0
M  END
> <RowID>
1357

> <Original_SMILES>
CCCCC(COC(=O)CCCCC(=O)OCC(CCCC)CC)CC

> <Canonical_QSARr>
CCCCC(COC(=O)CCCCC(=O)OCC(CCCC)CC)CC

> <InChI_Code_QSARr>
InChI=1S/C22H42O4/c1-5-9-13-19(7-3)17-25-21(23)15-11-12-16-22(24)26-18-20(8-4)14-10-6-2/h19-20H,5-18H2,1-4H3

> <InChI Key_QSARr>
SAOKZLXYCUGLFA-UHFFFAOYSA-N

> <Salt_Solvent>


> <Salt_Solvent_ID>
0

> <Number of connected components>
1

$$$$
Molecule_1358
  Mrv2316 01072400032D          

 10  9  0  0  0  0            999 V2000
    1.7605    1.8414    0.0000 C   0  0  0  0  0  0  0  0  0  0  0  0
    2.4750    1.4289    0.0000 C   0  0  0  0  0  0  0  0  0  0  0  0
    2.4750    0.6039    0.0000 C   0  0  0  0  0  0  0  0  0  0  0  0
    3.1895    1.8414    0.0000 C   0  0  0  0  0  0  0  0  0  0  0  0
    3.9039    1.4289    0.0000 C   0  0  0  0  0  0  0  0  0  0  0  0
    3.9039    0.6039    0.0000 O   0  0  0  0  0  0  0  0  0  0  0  0
    4.6184    1.8414    0.0000 C   0  0  0  0  0  0  0  0  0  0  0  0
    5.3329    1.4289    0.0000 C   0  0  0  0  0  0  0  0  0  0  0  0
    6.0474    1.8414    0.0000 C   0  0  0  0  0  0  0  0  0  0  0  0
    5.3329    0.6039    0.0000 C   0  0  0  0  0  0  0  0  0  0  0  0
  1  2  1  0  0  0  0
  2  3  1  0  0  0  0
  2  4  1  0  0  0  0
  4  5  1  0  0  0  0
  5  6  2  0  0  0  0
  5  7  1  0  0  0  0
  7  8  1  0  0  0  0
  8  9  1  0  0  0  0
  8 10  1  0  0  0  0
M  END
> <RowID>
1358

> <Original_SMILES>
CC(C)CC(=O)CC(C)C

> <Canonical_QSARr>
CC(C)CC(=O)CC(C)C

> <InChI_Code_QSARr>
InChI=1S/C9H18O/c1-7(2)5-9(10)6-8(3)4/h7-8H,5-6H2,1-4H3

> <InChI Key_QSARr>
PTTPXKJBFFKCEK-UHFFFAOYSA-N

> <Salt_Solvent>


> <Salt_Solvent_ID>
0

> <Number of connected components>
1

$$$$
Molecule_1359
  Mrv2316 01072400032D          

  9  9  0  0  0  0            999 V2000
    2.1434   -0.4125    0.0000 N   0  0  0  0  0  0  0  0  0  0  0  0
    1.4289   -0.0000    0.0000 C   0  0  0  0  0  0  0  0  0  0  0  0
    1.4289    0.8250    0.0000 N   0  0  0  0  0  0  0  0  0  0  0  0
    0.7145    1.2375    0.0000 C   0  0  0  0  0  0  0  0  0  0  0  0
    0.7145    2.0625    0.0000 Cl  0  0  0  0  0  0  0  0  0  0  0  0
   -0.0000    0.8250    0.0000 C   0  0  0  0  0  0  0  0  0  0  0  0
   -0.0000    0.0000    0.0000 C   0  0  0  0  0  0  0  0  0  0  0  0
   -0.7145   -0.4125    0.0000 N   0  0  0  0  0  0  0  0  0  0  0  0
    0.7145   -0.4125    0.0000 N   0  0  0  0  0  0  0  0  0  0  0  0
  1  2  1  0  0  0  0
  3  2  1  0  0  0  0
  4  3  2  0  0  0  0
  4  5  1  0  0  0  0
  6  4  1  0  0  0  0
  7  6  2  0  0  0  0
  7  8  1  0  0  0  0
  9  7  1  0  0  0  0
  2  9  2  0  0  0  0
M  END
> <RowID>
1359

> <Original_SMILES>
NC1N=C(Cl)C=C(N)N=1

> <Canonical_QSARr>
NC1N=C(Cl)C=C(N)N=1

> <InChI_Code_QSARr>
InChI=1S/C4H5ClN4/c5-2-1-3(6)9-4(7)8-2/h1H,(H4,6,7,8,9)

> <InChI Key_QSARr>
QJIUMVUZDYPQRT-UHFFFAOYSA-N

> <Salt_Solvent>


> <Salt_Solvent_ID>
0

> <Number of connected components>
1

$$$$
Molecule_1361
  Mrv2316 01072400032D          

 14 15  0  0  0  0            999 V2000
    0.6957    1.0291    0.0000 C   0  0  0  0  0  0  0  0  0  0  0  0
    1.3619    0.1716    0.0000 C   0  0  0  0  0  0  0  0  0  0  0  0
    0.7041   -0.6785    0.0000 C   0  0  0  0  0  0  0  0  0  0  0  0
    1.1557    0.9966    0.0000 C   0  0  0  0  0  0  0  0  0  0  0  0
    0.4412    0.5841    0.0000 C   0  0  0  0  0  0  0  0  0  0  0  0
    0.4412   -0.2409    0.0000 C   0  0  0  0  0  0  0  0  0  0  0  0
   -0.4230   -0.5421    0.0000 O   0  0  0  0  0  0  0  0  0  0  0  0
   -1.2641   -0.3722    0.0000 C   0  0  0  0  0  0  0  0  0  0  0  0
   -1.8099   -0.9908    0.0000 C   0  0  0  0  0  0  0  0  0  0  0  0
   -1.5269    0.4098    0.0000 O   0  0  0  0  0  0  0  0  0  0  0  0
    1.1557   -0.6534    0.0000 C   0  0  0  0  0  0  0  0  0  0  0  0
    1.4254   -1.5460    0.0000 C   0  0  0  0  0  0  0  0  0  0  0  0
    1.8701   -0.2409    0.0000 C   0  0  0  0  0  0  0  0  0  0  0  0
    1.8701    0.5841    0.0000 C   0  0  0  0  0  0  0  0  0  0  0  0
  1  2  1  0  0  0  0
  2  3  1  0  0  0  0
  4  2  1  0  0  0  0
  4  5  1  0  0  0  0
  5  6  1  0  0  0  0
  6  7  1  0  0  0  0
  7  8  1  0  0  0  0
  8  9  1  0  0  0  0
  8 10  2  0  0  0  0
  6 11  1  0  0  0  0
  2 11  1  0  0  0  0
 11 12  1  0  0  0  0
 11 13  1  0  0  0  0
 13 14  1  0  0  0  0
 14  4  1  0  0  0  0
M  END
> <RowID>
1361

> <Original_SMILES>
CC1(C)C2CC(OC(C)=O)C1(C)CC2

> <Canonical_QSARr>
CC1(C)C2CC(OC(C)=O)C1(C)CC2

> <InChI_Code_QSARr>
InChI=1S/C12H20O2/c1-8(13)14-10-7-9-5-6-12(10,4)11(9,2)3/h9-10H,5-7H2,1-4H3

> <InChI Key_QSARr>
KGEKLUUHTZCSIP-UHFFFAOYSA-N

> <Salt_Solvent>


> <Salt_Solvent_ID>
0

> <Number of connected components>
1

$$$$
Molecule_1362
  Mrv2316 01072400032D          

 48 51  0  0  0  0            999 V2000
    1.7266  -10.0031    0.0000 C   0  0  0  0  0  0  0  0  0  0  0  0
    1.7266   -9.1781    0.0000 C   0  0  0  0  0  0  0  0  0  0  0  0
    1.0122   -8.7656    0.0000 O   0  0  0  0  0  0  0  0  0  0  0  0
    2.4411   -8.7656    0.0000 C   0  0  0  0  0  0  0  0  0  0  0  0
    2.4411   -7.9406    0.0000 N   0  0  0  0  0  0  0  0  0  0  0  0
    3.1556   -7.5281    0.0000 N   0  0  0  0  0  0  0  0  0  0  0  0
    3.1556   -6.7031    0.0000 C   0  0  0  0  0  0  0  0  0  0  0  0
    3.8701   -6.2906    0.0000 C   0  0  0  0  0  0  0  0  0  0  0  0
    3.8701   -5.4656    0.0000 C   0  0  0  0  0  0  0  0  0  0  0  0
    3.1556   -5.0531    0.0000 C   0  0  0  0  0  0  0  0  0  0  0  0
    3.1556   -4.2281    0.0000 C   0  0  0  0  0  0  0  0  0  0  0  0
    3.8701   -3.8156    0.0000 C   0  0  0  0  0  0  0  0  0  0  0  0
    3.8701   -2.9906    0.0000 C   0  0  0  0  0  0  0  0  0  0  0  0
    4.5845   -2.5781    0.0000 Cl  0  0  0  0  0  0  0  0  0  0  0  0
    3.1556   -2.5781    0.0000 C   0  0  0  0  0  0  0  0  0  0  0  0
    3.1556   -1.7531    0.0000 N   0  0  0  0  0  0  0  0  0  0  0  0
    3.8701   -1.3406    0.0000 N   0  0  0  0  0  0  0  0  0  0  0  0
    3.8701   -0.5156    0.0000 C   0  0  0  0  0  0  0  0  0  0  0  0
    4.5845   -0.1031    0.0000 C   0  0  0  0  0  0  0  0  0  0  0  0
    5.2990   -0.5156    0.0000 O   0  0  0  0  0  0  0  0  0  0  0  0
    4.5845    0.7219    0.0000 N   0  0  0  0  0  0  0  0  0  0  0  0
    5.2990    1.1344    0.0000 C   0  0  0  0  0  0  0  0  0  0  0  0
    6.0135    0.7219    0.0000 C   0  0  0  0  0  0  0  0  0  0  0  0
    6.7279    1.1344    0.0000 C   0  0  0  0  0  0  0  0  0  0  0  0
    6.7279    1.9594    0.0000 C   0  0  0  0  0  0  0  0  0  0  0  0
    6.0135    2.3719    0.0000 C   0  0  0  0  0  0  0  0  0  0  0  0
    5.2990    1.9594    0.0000 C   0  0  0  0  0  0  0  0  0  0  0  0
    4.5845    2.3719    0.0000 O   0  0  0  0  0  0  0  0  0  0  0  0
    3.8701    1.9594    0.0000 C   0  0  0  0  0  0  0  0  0  0  0  0
    3.1556   -0.1031    0.0000 C   0  0  0  0  0  0  0  0  0  0  0  0
    2.4411   -0.5156    0.0000 C   0  0  0  0  0  0  0  0  0  0  0  0
    3.1556    0.7219    0.0000 O   0  0  0  0  0  0  0  0  0  0  0  0
    2.4411   -2.9906    0.0000 C   0  0  0  0  0  0  0  0  0  0  0  0
    2.4411   -3.8156    0.0000 C   0  0  0  0  0  0  0  0  0  0  0  0
    2.4411   -5.4656    0.0000 C   0  0  0  0  0  0  0  0  0  0  0  0
    2.4411   -6.2906    0.0000 C   0  0  0  0  0  0  0  0  0  0  0  0
    1.7266   -6.7031    0.0000 Cl  0  0  0  0  0  0  0  0  0  0  0  0
    3.1556   -9.1781    0.0000 C   0  0  0  0  0  0  0  0  0  0  0  0
    3.8701   -8.7656    0.0000 O   0  0  0  0  0  0  0  0  0  0  0  0
    3.1556  -10.0031    0.0000 N   0  0  0  0  0  0  0  0  0  0  0  0
    3.8701  -10.4156    0.0000 C   0  0  0  0  0  0  0  0  0  0  0  0
    3.8701  -11.2406    0.0000 C   0  0  0  0  0  0  0  0  0  0  0  0
    4.5845  -11.6531    0.0000 C   0  0  0  0  0  0  0  0  0  0  0  0
    5.2990  -11.2406    0.0000 C   0  0  0  0  0  0  0  0  0  0  0  0
    5.2990  -10.4156    0.0000 C   0  0  0  0  0  0  0  0  0  0  0  0
    4.5845  -10.0031    0.0000 C   0  0  0  0  0  0  0  0  0  0  0  0
    4.5845   -9.1781    0.0000 O   0  0  0  0  0  0  0  0  0  0  0  0
    5.2990   -8.7656    0.0000 C   0  0  0  0  0  0  0  0  0  0  0  0
  1  2  1  0  0  0  0
  2  3  2  0  0  0  0
  2  4  1  0  0  0  0
  5  4  1  4  0  0  0
  5  6  2  0  0  0  0
  6  7  1  0  0  0  0
  8  7  2  0  0  0  0
  9  8  1  0  0  0  0
 10  9  2  0  0  0  0
 10 11  1  0  0  0  0
 12 11  2  0  0  0  0
 13 12  1  0  0  0  0
 13 14  1  0  0  0  0
 15 13  2  0  0  0  0
 16 15  1  4  0  0  0
 16 17  2  0  0  0  0
 17 18  1  0  0  0  0
 18 19  1  0  0  0  0
 19 20  2  0  0  0  0
 19 21  1  0  0  0  0
 21 22  1  0  0  0  0
 23 22  2  0  0  0  0
 24 23  1  0  0  0  0
 25 24  2  0  0  0  0
 26 25  1  0  0  0  0
 27 26  2  0  0  0  0
 22 27  1  0  0  0  0
 27 28  1  0  0  0  0
 28 29  1  0  0  0  0
 18 30  1  0  0  0  0
 30 31  1  0  0  0  0
 30 32  2  0  0  0  0
 33 15  1  0  0  0  0
 34 33  2  0  0  0  0
 11 34  1  0  0  0  0
 35 10  1  0  0  0  0
 36 35  2  0  0  0  0
  7 36  1  0  0  0  0
 36 37  1  0  0  0  0
  4 38  1  0  0  0  0
 38 39  2  0  0  0  0
 38 40  1  0  0  0  0
 40 41  1  0  0  0  0
 42 41  2  0  0  0  0
 43 42  1  0  0  0  0
 44 43  2  0  0  0  0
 45 44  1  0  0  0  0
 46 45  2  0  0  0  0
 41 46  1  0  0  0  0
 46 47  1  0  0  0  0
 47 48  1  0  0  0  0
M  END
> <RowID>
1362

> <Original_SMILES>
CC(=O)C(N=NC1=CC=C(C=C1Cl)C1=CC(Cl)=C(C=C1)N=NC(C(=O)NC1=CC=CC=C1OC)C(C)=O)C(=O)NC1=CC=CC=C1OC

> <Canonical_QSARr>
CC(=O)C(N=NC1=CC=C(C=C1Cl)C1=CC(Cl)=C(C=C1)N=NC(C(=O)NC1=CC=CC=C1OC)C(C)=O)C(=O)NC1=CC=CC=C1OC

> <InChI_Code_QSARr>
InChI=1S/C34H30Cl2N6O6/c1-19(43)31(33(45)37-27-9-5-7-11-29(27)47-3)41-39-25-15-13-21(17-23(25)35)22-14-16-26(24(36)18-22)40-42-32(20(2)44)34(46)38-28-10-6-8-12-30(28)48-4/h5-18,31-32H,1-4H3,(H,37,45)(H,38,46)

> <InChI Key_QSARr>
VTGOEJALMFECDQ-UHFFFAOYSA-N

> <Salt_Solvent>


> <Salt_Solvent_ID>
0

> <Number of connected components>
1

$$$$
Molecule_1363
  Mrv2316 01072400032D          

 12 11  0  0  0  0            999 V2000
    2.9980    2.5559    0.0000 C   0  0  0  0  0  0  0  0  0  0  0  0
    3.7125    2.1434    0.0000 C   0  0  0  0  0  0  0  0  0  0  0  0
    4.4270    2.5559    0.0000 C   0  0  0  0  0  0  0  0  0  0  0  0
    5.1414    2.1434    0.0000 C   0  0  0  0  0  0  0  0  0  0  0  0
    5.8559    2.5559    0.0000 C   0  0  0  0  0  0  0  0  0  0  0  0
    5.8559    3.3809    0.0000 C   0  0  0  0  0  0  0  0  0  0  0  0
    6.5704    3.7934    0.0000 C   0  0  0  0  0  0  0  0  0  0  0  0
    6.5704    2.1434    0.0000 C   0  0  0  0  0  0  0  0  0  0  0  0
    6.5704    1.3184    0.0000 O   0  0  0  0  0  0  0  0  0  0  0  0
    7.2849    2.5559    0.0000 O   0  0  0  0  0  0  0  0  0  0  0  0
    7.9993    2.1434    0.0000 C   0  0  0  0  0  0  0  0  0  0  0  0
    8.7138    2.5559    0.0000 C   0  0  0  0  0  0  0  0  0  0  0  0
  1  2  1  0  0  0  0
  2  3  1  0  0  0  0
  3  4  1  0  0  0  0
  4  5  1  0  0  0  0
  5  6  1  0  0  0  0
  6  7  1  0  0  0  0
  5  8  1  0  0  0  0
  8  9  2  0  0  0  0
  8 10  1  0  0  0  0
 10 11  1  0  0  0  0
 11 12  2  0  0  0  0
M  END
> <RowID>
1363

> <Original_SMILES>
CCCCC(CC)C(=O)OC=C

> <Canonical_QSARr>
CCCCC(CC)C(=O)OC=C

> <InChI_Code_QSARr>
InChI=1S/C10H18O2/c1-4-7-8-9(5-2)10(11)12-6-3/h6,9H,3-5,7-8H2,1-2H3

> <InChI Key_QSARr>
IGBZOHMCHDADGY-UHFFFAOYSA-N

> <Salt_Solvent>


> <Salt_Solvent_ID>
0

> <Number of connected components>
1

$$$$
Molecule_1364
  Mrv2316 01072400032D          

 24 24  0  0  0  0            999 V2000
   -0.2977   -4.1250    0.0000 C   0  0  0  0  0  0  0  0  0  0  0  0
   -0.2977   -3.3000    0.0000 C   0  0  0  0  0  0  0  0  0  0  0  0
    0.5273   -3.3000    0.0000 C   0  0  0  0  0  0  0  0  0  0  0  0
   -1.1227   -3.3000    0.0000 C   0  0  0  0  0  0  0  0  0  0  0  0
   -0.2977   -2.4750    0.0000 O   0  0  0  0  0  0  0  0  0  0  0  0
    0.4168   -2.0625    0.0000 O   0  0  0  0  0  0  0  0  0  0  0  0
    0.4168   -1.2375    0.0000 C   0  0  0  0  0  0  0  0  0  0  0  0
    1.2418   -1.2375    0.0000 C   0  0  0  0  0  0  0  0  0  0  0  0
   -0.4082   -1.2375    0.0000 C   0  0  0  0  0  0  0  0  0  0  0  0
    0.4168   -0.4125    0.0000 C   0  0  0  0  0  0  0  0  0  0  0  0
    1.1313    0.0000    0.0000 C   0  0  0  0  0  0  0  0  0  0  0  0
    1.1313    0.8250    0.0000 C   0  0  0  0  0  0  0  0  0  0  0  0
    0.4168    1.2375    0.0000 C   0  0  0  0  0  0  0  0  0  0  0  0
    0.4168    2.0625    0.0000 C   0  0  0  0  0  0  0  0  0  0  0  0
    1.2418    2.0625    0.0000 C   0  0  0  0  0  0  0  0  0  0  0  0
   -0.4082    2.0625    0.0000 C   0  0  0  0  0  0  0  0  0  0  0  0
    0.4168    2.8875    0.0000 O   0  0  0  0  0  0  0  0  0  0  0  0
    1.1313    3.3000    0.0000 O   0  0  0  0  0  0  0  0  0  0  0  0
    1.1313    4.1250    0.0000 C   0  0  0  0  0  0  0  0  0  0  0  0
    1.1313    4.9500    0.0000 C   0  0  0  0  0  0  0  0  0  0  0  0
    1.9563    4.1250    0.0000 C   0  0  0  0  0  0  0  0  0  0  0  0
    0.3063    4.1250    0.0000 C   0  0  0  0  0  0  0  0  0  0  0  0
   -0.2977    0.8250    0.0000 C   0  0  0  0  0  0  0  0  0  0  0  0
   -0.2977    0.0000    0.0000 C   0  0  0  0  0  0  0  0  0  0  0  0
  1  2  1  0  0  0  0
  2  3  1  0  0  0  0
  2  4  1  0  0  0  0
  2  5  1  0  0  0  0
  5  6  1  0  0  0  0
  6  7  1  0  0  0  0
  7  8  1  0  0  0  0
  7  9  1  0  0  0  0
  7 10  1  0  0  0  0
 11 10  1  0  0  0  0
 12 11  2  0  0  0  0
 13 12  1  0  0  0  0
 13 14  1  0  0  0  0
 14 15  1  0  0  0  0
 14 16  1  0  0  0  0
 14 17  1  0  0  0  0
 17 18  1  0  0  0  0
 18 19  1  0  0  0  0
 19 20  1  0  0  0  0
 19 21  1  0  0  0  0
 19 22  1  0  0  0  0
 23 13  2  0  0  0  0
 24 23  1  0  0  0  0
 10 24  2  0  0  0  0
M  END
> <RowID>
1364

> <Original_SMILES>
CC(C)(C)OOC(C)(C)C1C=CC(=CC=1)C(C)(C)OOC(C)(C)C

> <Canonical_QSARr>
CC(C)(C)OOC(C)(C)C1C=CC(=CC=1)C(C)(C)OOC(C)(C)C

> <InChI_Code_QSARr>
InChI=1S/C20H34O4/c1-17(2,3)21-23-19(7,8)15-11-13-16(14-12-15)20(9,10)24-22-18(4,5)6/h11-14H,1-10H3

> <InChI Key_QSARr>
GWQOYRSARAWVTC-UHFFFAOYSA-N

> <Salt_Solvent>


> <Salt_Solvent_ID>
0

> <Number of connected components>
1

$$$$
Molecule_1365
  Mrv2316 01072400032D          

 59 58  0  0  0  0            999 V2000
   24.0425   14.7047    0.0000 C   0  0  0  0  0  0  0  0  0  0  0  0
   24.7569   14.2922    0.0000 C   0  0  0  0  0  0  0  0  0  0  0  0
   25.4714   14.7047    0.0000 C   0  0  0  0  0  0  0  0  0  0  0  0
   26.1859   14.2922    0.0000 C   0  0  0  0  0  0  0  0  0  0  0  0
   26.9003   14.7047    0.0000 C   0  0  0  0  0  0  0  0  0  0  0  0
   27.6148   14.2922    0.0000 C   0  0  0  0  0  0  0  0  0  0  0  0
   28.3293   14.7047    0.0000 C   0  0  0  0  0  0  0  0  0  0  0  0
   29.0437   14.2922    0.0000 C   0  0  0  0  0  0  0  0  0  0  0  0
   29.7582   14.7047    0.0000 C   0  0  0  0  0  0  0  0  0  0  0  0
   30.4727   14.2922    0.0000 C   0  0  0  0  0  0  0  0  0  0  0  0
   31.1872   14.7047    0.0000 C   0  0  0  0  0  0  0  0  0  0  0  0
   31.9016   14.2922    0.0000 C   0  0  0  0  0  0  0  0  0  0  0  0
   32.6161   14.7047    0.0000 C   0  0  0  0  0  0  0  0  0  0  0  0
   33.3306   14.2922    0.0000 C   0  0  0  0  0  0  0  0  0  0  0  0
   34.0450   14.7047    0.0000 C   0  0  0  0  0  0  0  0  0  0  0  0
   34.7595   14.2922    0.0000 C   0  0  0  0  0  0  0  0  0  0  0  0
   35.4740   14.7047    0.0000 C   0  0  0  0  0  0  0  0  0  0  0  0
   36.1885   14.2922    0.0000 C   0  0  0  0  0  0  0  0  0  0  0  0
   36.9029   14.7047    0.0000 O   0  0  0  0  0  0  0  0  0  0  0  0
   37.6174   14.2922    0.0000 C   0  0  0  0  0  0  0  0  0  0  0  0
   37.6174   13.4672    0.0000 O   0  0  0  0  0  0  0  0  0  0  0  0
   38.3319   14.7047    0.0000 C   0  0  0  0  0  0  0  0  0  0  0  0
   39.0463   14.2922    0.0000 C   0  0  0  0  0  0  0  0  0  0  0  0
   39.7608   14.7047    0.0000 C   0  0  0  0  0  0  0  0  0  0  0  0
   39.7608   15.5297    0.0000 N   0  0  0  0  0  0  0  0  0  0  0  0
   39.0463   15.9422    0.0000 C   0  0  0  0  0  0  0  0  0  0  0  0
   38.3319   15.5297    0.0000 O   0  0  0  0  0  0  0  0  0  0  0  0
   39.0463   16.7672    0.0000 C   0  0  0  0  0  0  0  0  0  0  0  0
   38.3319   17.1797    0.0000 C   0  0  0  0  0  0  0  0  0  0  0  0
   38.3319   18.0047    0.0000 C   0  0  0  0  0  0  0  0  0  0  0  0
   37.6174   18.4172    0.0000 C   0  0  0  0  0  0  0  0  0  0  0  0
   37.6174   19.2422    0.0000 C   0  0  0  0  0  0  0  0  0  0  0  0
   36.9029   19.6547    0.0000 C   0  0  0  0  0  0  0  0  0  0  0  0
   36.9029   20.4797    0.0000 C   0  0  0  0  0  0  0  0  0  0  0  0
   36.1885   20.8922    0.0000 C   0  0  0  0  0  0  0  0  0  0  0  0
   36.1885   21.7172    0.0000 C   0  0  0  0  0  0  0  0  0  0  0  0
   35.4740   22.1297    0.0000 C   0  0  0  0  0  0  0  0  0  0  0  0
   35.4740   22.9547    0.0000 C   0  0  0  0  0  0  0  0  0  0  0  0
   40.4753   14.2922    0.0000 C   0  0  0  0  0  0  0  0  0  0  0  0
   40.4753   13.4672    0.0000 O   0  0  0  0  0  0  0  0  0  0  0  0
   41.1898   14.7047    0.0000 O   0  0  0  0  0  0  0  0  0  0  0  0
   41.9042   14.2922    0.0000 C   0  0  0  0  0  0  0  0  0  0  0  0
   42.6187   14.7047    0.0000 C   0  0  0  0  0  0  0  0  0  0  0  0
   43.3332   14.2922    0.0000 C   0  0  0  0  0  0  0  0  0  0  0  0
   44.0476   14.7047    0.0000 C   0  0  0  0  0  0  0  0  0  0  0  0
   44.7621   14.2922    0.0000 C   0  0  0  0  0  0  0  0  0  0  0  0
   45.4766   14.7047    0.0000 C   0  0  0  0  0  0  0  0  0  0  0  0
   46.1911   14.2922    0.0000 C   0  0  0  0  0  0  0  0  0  0  0  0
   46.9055   14.7047    0.0000 C   0  0  0  0  0  0  0  0  0  0  0  0
   47.6200   14.2922    0.0000 C   0  0  0  0  0  0  0  0  0  0  0  0
   48.3345   14.7047    0.0000 C   0  0  0  0  0  0  0  0  0  0  0  0
   49.0489   14.2922    0.0000 C   0  0  0  0  0  0  0  0  0  0  0  0
   49.7634   14.7047    0.0000 C   0  0  0  0  0  0  0  0  0  0  0  0
   50.4779   14.2922    0.0000 C   0  0  0  0  0  0  0  0  0  0  0  0
   51.1923   14.7047    0.0000 C   0  0  0  0  0  0  0  0  0  0  0  0
   51.9068   14.2922    0.0000 C   0  0  0  0  0  0  0  0  0  0  0  0
   52.6213   14.7047    0.0000 C   0  0  0  0  0  0  0  0  0  0  0  0
   53.3358   14.2922    0.0000 C   0  0  0  0  0  0  0  0  0  0  0  0
   54.0502   14.7047    0.0000 C   0  0  0  0  0  0  0  0  0  0  0  0
  1  2  1  0  0  0  0
  2  3  1  0  0  0  0
  3  4  1  0  0  0  0
  4  5  1  0  0  0  0
  5  6  1  0  0  0  0
  6  7  1  0  0  0  0
  7  8  1  0  0  0  0
  8  9  1  0  0  0  0
  9 10  1  0  0  0  0
 10 11  1  0  0  0  0
 11 12  1  0  0  0  0
 12 13  1  0  0  0  0
 13 14  1  0  0  0  0
 14 15  1  0  0  0  0
 15 16  1  0  0  0  0
 16 17  1  0  0  0  0
 17 18  1  0  0  0  0
 18 19  1  0  0  0  0
 19 20  1  0  0  0  0
 20 21  2  0  0  0  0
 20 22  1  0  0  0  0
 22 23  1  0  0  0  0
 23 24  1  0  0  0  0
 24 25  1  0  0  0  0
 25 26  1  0  0  0  0
 26 27  2  0  0  0  0
 26 28  1  0  0  0  0
 28 29  1  0  0  0  0
 29 30  1  0  0  0  0
 30 31  1  0  0  0  0
 31 32  1  0  0  0  0
 32 33  1  0  0  0  0
 33 34  1  0  0  0  0
 34 35  1  0  0  0  0
 35 36  1  0  0  0  0
 36 37  1  0  0  0  0
 37 38  1  0  0  0  0
 24 39  1  0  0  0  0
 39 40  2  0  0  0  0
 39 41  1  0  0  0  0
 41 42  1  0  0  0  0
 42 43  1  0  0  0  0
 43 44  1  0  0  0  0
 44 45  1  0  0  0  0
 45 46  1  0  0  0  0
 46 47  1  0  0  0  0
 47 48  1  0  0  0  0
 48 49  1  0  0  0  0
 49 50  1  0  0  0  0
 50 51  1  0  0  0  0
 51 52  1  0  0  0  0
 52 53  1  0  0  0  0
 53 54  1  0  0  0  0
 54 55  1  0  0  0  0
 55 56  1  0  0  0  0
 56 57  1  0  0  0  0
 57 58  1  0  0  0  0
 58 59  1  0  0  0  0
M  END
> <RowID>
1365

> <Original_SMILES>
CCCCCCCCCCCCCCCCCCOC(=O)CCC(NC(=O)CCCCCCCCCCC)C(=O)OCCCCCCCCCCCCCCCCCC

> <Canonical_QSARr>
CCCCCCCCCCCCCCCCCCOC(=O)CCC(NC(=O)CCCCCCCCCCC)C(=O)OCCCCCCCCCCCCCCCCCC

> <InChI_Code_QSARr>
InChI=1S/C53H103NO5/c1-4-7-10-13-16-19-21-23-25-27-29-31-34-37-40-43-48-58-52(56)47-46-50(54-51(55)45-42-39-36-33-18-15-12-9-6-3)53(57)59-49-44-41-38-35-32-30-28-26-24-22-20-17-14-11-8-5-2/h50H,4-49H2,1-3H3,(H,54,55)

> <InChI Key_QSARr>
ATCSZWDSMPHYLD-UHFFFAOYSA-N

> <Salt_Solvent>


> <Salt_Solvent_ID>
0

> <Number of connected components>
1

$$$$
Molecule_1366
  Mrv2316 01072400032D          

 55 54  0  0  0  0            999 V2000
   -6.9139    7.5586    0.0000 C   0  0  0  0  0  0  0  0  0  0  0  0
   -6.1994    7.9711    0.0000 C   0  0  0  0  0  0  0  0  0  0  0  0
   -5.4849    7.5586    0.0000 C   0  0  0  0  0  0  0  0  0  0  0  0
   -4.7704    7.9711    0.0000 C   0  0  0  0  0  0  0  0  0  0  0  0
   -4.0560    7.5586    0.0000 C   0  0  0  0  0  0  0  0  0  0  0  0
   -3.3415    7.9711    0.0000 C   0  0  0  0  0  0  0  0  0  0  0  0
   -2.6270    7.5586    0.0000 C   0  0  0  0  0  0  0  0  0  0  0  0
   -1.9126    7.9711    0.0000 C   0  0  0  0  0  0  0  0  0  0  0  0
   -1.1981    7.5586    0.0000 C   0  0  0  0  0  0  0  0  0  0  0  0
   -0.4836    7.9711    0.0000 C   0  0  0  0  0  0  0  0  0  0  0  0
    0.2308    7.5586    0.0000 C   0  0  0  0  0  0  0  0  0  0  0  0
    0.9453    7.9711    0.0000 C   0  0  0  0  0  0  0  0  0  0  0  0
    1.6598    7.5586    0.0000 C   0  0  0  0  0  0  0  0  0  0  0  0
    2.3743    7.9711    0.0000 C   0  0  0  0  0  0  0  0  0  0  0  0
    3.0887    7.5586    0.0000 C   0  0  0  0  0  0  0  0  0  0  0  0
    3.8032    7.9711    0.0000 C   0  0  0  0  0  0  0  0  0  0  0  0
    4.5177    7.5586    0.0000 C   0  0  0  0  0  0  0  0  0  0  0  0
    5.2321    7.9711    0.0000 C   0  0  0  0  0  0  0  0  0  0  0  0
    5.9466    7.5586    0.0000 C   0  0  0  0  0  0  0  0  0  0  0  0
    6.6611    7.9711    0.0000 C   0  0  0  0  0  0  0  0  0  0  0  0
    7.3756    7.5586    0.0000 C   0  0  0  0  0  0  0  0  0  0  0  0
    8.0900    7.9711    0.0000 C   0  0  0  0  0  0  0  0  0  0  0  0
    8.0900    8.7961    0.0000 O   0  0  0  0  0  0  0  0  0  0  0  0
    8.8045    7.5586    0.0000 O   0  0  0  0  0  0  0  0  0  0  0  0
    9.5190    7.9711    0.0000 C   0  0  0  0  0  0  0  0  0  0  0  0
   10.2334    7.5586    0.0000 C   0  0  0  0  0  0  0  0  0  0  0  0
   10.9479    7.1461    0.0000 C   0  0  0  0  0  0  0  0  0  0  0  0
   11.6624    7.5586    0.0000 O   0  0  0  0  0  0  0  0  0  0  0  0
   12.3769    7.1461    0.0000 C   0  0  0  0  0  0  0  0  0  0  0  0
   12.3769    6.3211    0.0000 O   0  0  0  0  0  0  0  0  0  0  0  0
   13.0913    7.5586    0.0000 C   0  0  0  0  0  0  0  0  0  0  0  0
   13.8058    7.1461    0.0000 C   0  0  0  0  0  0  0  0  0  0  0  0
   14.5203    7.5586    0.0000 C   0  0  0  0  0  0  0  0  0  0  0  0
   15.2347    7.1461    0.0000 C   0  0  0  0  0  0  0  0  0  0  0  0
   15.9492    7.5586    0.0000 C   0  0  0  0  0  0  0  0  0  0  0  0
   16.6637    7.1461    0.0000 C   0  0  0  0  0  0  0  0  0  0  0  0
   17.3782    7.5586    0.0000 C   0  0  0  0  0  0  0  0  0  0  0  0
   18.0926    7.1461    0.0000 C   0  0  0  0  0  0  0  0  0  0  0  0
   18.8071    7.5586    0.0000 C   0  0  0  0  0  0  0  0  0  0  0  0
   19.5216    7.1461    0.0000 C   0  0  0  0  0  0  0  0  0  0  0  0
   20.2360    7.5586    0.0000 C   0  0  0  0  0  0  0  0  0  0  0  0
   20.9505    7.1461    0.0000 C   0  0  0  0  0  0  0  0  0  0  0  0
   21.6650    7.5586    0.0000 C   0  0  0  0  0  0  0  0  0  0  0  0
   22.3794    7.1461    0.0000 C   0  0  0  0  0  0  0  0  0  0  0  0
   23.0939    7.5586    0.0000 C   0  0  0  0  0  0  0  0  0  0  0  0
   23.8084    7.1461    0.0000 C   0  0  0  0  0  0  0  0  0  0  0  0
   24.5229    7.5586    0.0000 C   0  0  0  0  0  0  0  0  0  0  0  0
   25.2373    7.1461    0.0000 C   0  0  0  0  0  0  0  0  0  0  0  0
   25.9518    7.5586    0.0000 C   0  0  0  0  0  0  0  0  0  0  0  0
   26.6663    7.1461    0.0000 C   0  0  0  0  0  0  0  0  0  0  0  0
   27.3807    7.5586    0.0000 C   0  0  0  0  0  0  0  0  0  0  0  0
    9.8209    6.8441    0.0000 C   0  0  0  0  0  0  0  0  0  0  0  0
   10.2334    6.1296    0.0000 O   0  0  0  0  0  0  0  0  0  0  0  0
   10.6459    8.2730    0.0000 C   0  0  0  0  0  0  0  0  0  0  0  0
   11.4709    8.2730    0.0000 O   0  0  0  0  0  0  0  0  0  0  0  0
  1  2  1  0  0  0  0
  2  3  1  0  0  0  0
  3  4  1  0  0  0  0
  4  5  1  0  0  0  0
  5  6  1  0  0  0  0
  6  7  1  0  0  0  0
  7  8  1  0  0  0  0
  8  9  1  0  0  0  0
  9 10  1  0  0  0  0
 10 11  1  0  0  0  0
 11 12  1  0  0  0  0
 12 13  1  0  0  0  0
 13 14  1  0  0  0  0
 14 15  1  0  0  0  0
 15 16  1  0  0  0  0
 16 17  1  0  0  0  0
 17 18  1  0  0  0  0
 18 19  1  0  0  0  0
 19 20  1  0  0  0  0
 20 21  1  0  0  0  0
 21 22  1  0  0  0  0
 22 23  2  0  0  0  0
 22 24  1  0  0  0  0
 24 25  1  0  0  0  0
 25 26  1  0  0  0  0
 26 27  1  0  0  0  0
 27 28  1  0  0  0  0
 28 29  1  0  0  0  0
 29 30  2  0  0  0  0
 29 31  1  0  0  0  0
 31 32  1  0  0  0  0
 32 33  1  0  0  0  0
 33 34  1  0  0  0  0
 34 35  1  0  0  0  0
 35 36  1  0  0  0  0
 36 37  1  0  0  0  0
 37 38  1  0  0  0  0
 38 39  1  0  0  0  0
 39 40  1  0  0  0  0
 40 41  1  0  0  0  0
 41 42  1  0  0  0  0
 42 43  1  0  0  0  0
 43 44  1  0  0  0  0
 44 45  1  0  0  0  0
 45 46  1  0  0  0  0
 46 47  1  0  0  0  0
 47 48  1  0  0  0  0
 48 49  1  0  0  0  0
 49 50  1  0  0  0  0
 50 51  1  0  0  0  0
 26 52  1  0  0  0  0
 52 53  1  0  0  0  0
 26 54  1  0  0  0  0
 54 55  1  0  0  0  0
M  END
> <RowID>
1366

> <Original_SMILES>
CCCCCCCCCCCCCCCCCCCCCC(=O)OCC(COC(=O)CCCCCCCCCCCCCCCCCCCCC)(CO)CO

> <Canonical_QSARr>
CCCCCCCCCCCCCCCCCCCCCC(=O)OCC(COC(=O)CCCCCCCCCCCCCCCCCCCCC)(CO)CO

> <InChI_Code_QSARr>
InChI=1S/C49H96O6/c1-3-5-7-9-11-13-15-17-19-21-23-25-27-29-31-33-35-37-39-41-47(52)54-45-49(43-50,44-51)46-55-48(53)42-40-38-36-34-32-30-28-26-24-22-20-18-16-14-12-10-8-6-4-2/h50-51H,3-46H2,1-2H3

> <InChI Key_QSARr>
WIWNPEDDOAMGGM-UHFFFAOYSA-N

> <Salt_Solvent>


> <Salt_Solvent_ID>
0

> <Number of connected components>
1

$$$$
Molecule_1367
  Mrv2316 01072400032D          

 13 13  0  0  0  0            999 V2000
   -0.7145    0.6029    0.0000 C   0  0  0  0  0  0  0  0  0  0  0  0
   -0.0000    0.1904    0.0000 C   0  0  0  0  0  0  0  0  0  0  0  0
   -0.0000   -0.6346    0.0000 C   0  0  0  0  0  0  0  0  0  0  0  0
   -0.7145   -1.0471    0.0000 C   0  0  0  0  0  0  0  0  0  0  0  0
    0.7145    0.6029    0.0000 C   0  0  0  0  0  0  0  0  0  0  0  0
    1.4289    0.1904    0.0000 O   0  0  0  0  0  0  0  0  0  0  0  0
    0.7145    1.4279    0.0000 C   0  0  0  0  0  0  0  0  0  0  0  0
    1.4289    1.8404    0.0000 C   0  0  0  0  0  0  0  0  0  0  0  0
    1.4289    2.6654    0.0000 C   0  0  0  0  0  0  0  0  0  0  0  0
    0.7145    3.0779    0.0000 C   0  0  0  0  0  0  0  0  0  0  0  0
    0.7145    3.9029    0.0000 Cl  0  0  0  0  0  0  0  0  0  0  0  0
   -0.0000    2.6654    0.0000 C   0  0  0  0  0  0  0  0  0  0  0  0
   -0.0000    1.8404    0.0000 C   0  0  0  0  0  0  0  0  0  0  0  0
  1  2  1  0  0  0  0
  2  3  1  0  0  0  0
  3  4  2  0  0  0  0
  2  5  1  0  0  0  0
  5  6  1  0  0  0  0
  5  7  1  0  0  0  0
  8  7  2  0  0  0  0
  9  8  1  0  0  0  0
 10  9  2  0  0  0  0
 10 11  1  0  0  0  0
 12 10  1  0  0  0  0
 13 12  2  0  0  0  0
  7 13  1  0  0  0  0
M  END
> <RowID>
1367

> <Original_SMILES>
CC(C=C)C(O)C1=CC=C(Cl)C=C1

> <Canonical_QSARr>
CC(C=C)C(O)C1=CC=C(Cl)C=C1

> <InChI_Code_QSARr>
InChI=1S/C11H13ClO/c1-3-8(2)11(13)9-4-6-10(12)7-5-9/h3-8,11,13H,1H2,2H3

> <InChI Key_QSARr>
UUZUQJOJASRJBK-UHFFFAOYSA-N

> <Salt_Solvent>


> <Salt_Solvent_ID>
0

> <Number of connected components>
1

$$$$
Molecule_1369
  Mrv2316 01072400032D          

 13 14  0  0  0  0            999 V2000
    1.4289   -2.4750    0.0000 O   0  0  0  0  0  0  0  0  0  0  0  0
    1.4289   -1.6500    0.0000 C   0  0  0  0  0  0  0  0  0  0  0  0
    0.7145   -1.2375    0.0000 C   0  0  0  0  0  0  0  0  0  0  0  0
   -0.0000   -1.6500    0.0000 I   0  0  0  0  0  0  0  0  0  0  0  0
    0.7145   -0.4125    0.0000 C   0  0  0  0  0  0  0  0  0  0  0  0
    1.4289   -0.0000    0.0000 C   0  0  0  0  0  0  0  0  0  0  0  0
    1.4289    0.8250    0.0000 Cl  0  0  0  0  0  0  0  0  0  0  0  0
    2.1434   -0.4125    0.0000 C   0  0  0  0  0  0  0  0  0  0  0  0
    2.8579    0.0000    0.0000 C   0  0  0  0  0  0  0  0  0  0  0  0
    3.5724   -0.4125    0.0000 C   0  0  0  0  0  0  0  0  0  0  0  0
    3.5724   -1.2375    0.0000 C   0  0  0  0  0  0  0  0  0  0  0  0
    2.8579   -1.6500    0.0000 N   0  0  0  0  0  0  0  0  0  0  0  0
    2.1434   -1.2375    0.0000 C   0  0  0  0  0  0  0  0  0  0  0  0
  1  2  1  0  0  0  0
  3  2  1  0  0  0  0
  3  4  1  0  0  0  0
  5  3  2  0  0  0  0
  6  5  1  0  0  0  0
  6  7  1  0  0  0  0
  8  6  2  0  0  0  0
  8  9  1  0  0  0  0
  9 10  2  0  0  0  0
 10 11  1  0  0  0  0
 11 12  2  0  0  0  0
 12 13  1  0  0  0  0
  2 13  2  0  0  0  0
 13  8  1  0  0  0  0
M  END
> <RowID>
1369

> <Original_SMILES>
OC1C(I)=CC(Cl)=C2C=CC=NC2=1

> <Canonical_QSARr>
OC1C(I)=CC(Cl)=C2C=CC=NC2=1

> <InChI_Code_QSARr>
InChI=1S/C9H5ClINO/c10-6-4-7(11)9(13)8-5(6)2-1-3-12-8/h1-4,13H

> <InChI Key_QSARr>
QCDFBFJGMNKBDO-UHFFFAOYSA-N

> <Salt_Solvent>


> <Salt_Solvent_ID>
0

> <Number of connected components>
1

$$$$
Molecule_1370
  Mrv2316 01072400032D          

 17 18  0  0  0  0            999 V2000
   -0.7145   -0.4125    0.0000 C   0  0  0  0  0  0  0  0  0  0  0  0
    0.0000   -0.0000    0.0000 O   0  0  0  0  0  0  0  0  0  0  0  0
    0.7145   -0.4125    0.0000 C   0  0  0  0  0  0  0  0  0  0  0  0
    1.4289    0.0000    0.0000 C   0  0  0  0  0  0  0  0  0  0  0  0
    2.1434   -0.4125    0.0000 C   0  0  0  0  0  0  0  0  0  0  0  0
    2.8579    0.0000    0.0000 C   0  0  0  0  0  0  0  0  0  0  0  0
    3.5724   -0.4125    0.0000 C   0  0  0  0  0  0  0  0  0  0  0  0
    3.5724   -1.2375    0.0000 C   0  0  0  0  0  0  0  0  0  0  0  0
    2.8579   -1.6500    0.0000 C   0  0  0  0  0  0  0  0  0  0  0  0
    2.1434   -1.2375    0.0000 C   0  0  0  0  0  0  0  0  0  0  0  0
    1.4289   -1.6500    0.0000 C   0  0  0  0  0  0  0  0  0  0  0  0
    0.7145   -1.2375    0.0000 C   0  0  0  0  0  0  0  0  0  0  0  0
    4.2868   -1.6500    0.0000 C   0  0  0  0  0  0  0  0  0  0  0  0
    5.0013   -1.2375    0.0000 C   0  0  0  0  0  0  0  0  0  0  0  0
    4.2868   -2.4750    0.0000 C   0  0  0  0  0  0  0  0  0  0  0  0
    5.0013   -2.8875    0.0000 O   0  0  0  0  0  0  0  0  0  0  0  0
    3.5724   -2.8875    0.0000 O   0  0  0  0  0  0  0  0  0  0  0  0
  1  2  1  0  0  0  0
  2  3  1  0  0  0  0
  4  3  2  0  0  0  0
  5  4  1  0  0  0  0
  5  6  2  0  0  0  0
  6  7  1  0  0  0  0
  7  8  2  0  0  0  0
  8  9  1  0  0  0  0
  9 10  2  0  0  0  0
 10  5  1  0  0  0  0
 11 10  1  0  0  0  0
 12 11  2  0  0  0  0
  3 12  1  0  0  0  0
  8 13  1  0  0  0  0
 13 14  1  0  0  0  0
 13 15  1  0  0  0  0
 15 16  1  0  0  0  0
 15 17  2  0  0  0  0
M  END
> <RowID>
1370

> <Original_SMILES>
COC1=CC2=CC=C(C=C2C=C1)C(C)C(O)=O

> <Canonical_QSARr>
COC1=CC2=CC=C(C=C2C=C1)C(C)C(O)=O

> <InChI_Code_QSARr>
InChI=1S/C14H14O3/c1-9(14(15)16)10-3-4-12-8-13(17-2)6-5-11(12)7-10/h3-9H,1-2H3,(H,15,16)

> <InChI Key_QSARr>
CMWTZPSULFXXJA-UHFFFAOYSA-N

> <Salt_Solvent>


> <Salt_Solvent_ID>
0

> <Number of connected components>
1

$$$$
Molecule_1371
  Mrv2316 01072400032D          

 58 65  0  0  0  0            999 V2000
   -3.3876    3.6058    0.0000 O   0  0  0  0  0  0  0  0  0  0  0  0
   -3.3876    4.4308    0.0000 C   0  0  0  0  0  0  0  0  0  0  0  0
   -4.1020    4.8433    0.0000 C   0  0  0  0  0  0  0  0  0  0  0  0
   -4.8165    4.4308    0.0000 N   0  0  0  0  0  0  0  0  0  0  0  0
   -5.5310    4.8433    0.0000 N   0  0  0  0  0  0  0  0  0  0  0  0
   -6.2455    4.4308    0.0000 C   0  0  0  0  0  0  0  0  0  0  0  0
   -6.9599    4.8433    0.0000 C   0  0  0  0  0  0  0  0  0  0  0  0
   -7.6744    4.4308    0.0000 C   0  0  0  0  0  0  0  0  0  0  0  0
   -7.6744    3.6058    0.0000 C   0  0  0  0  0  0  0  0  0  0  0  0
   -6.9599    3.1933    0.0000 C   0  0  0  0  0  0  0  0  0  0  0  0
   -6.9599    2.3683    0.0000 Cl  0  0  0  0  0  0  0  0  0  0  0  0
   -6.2455    3.6058    0.0000 C   0  0  0  0  0  0  0  0  0  0  0  0
   -5.5310    3.1933    0.0000 Cl  0  0  0  0  0  0  0  0  0  0  0  0
   -4.1020    5.6683    0.0000 C   0  0  0  0  0  0  0  0  0  0  0  0
   -4.8165    6.0808    0.0000 C   0  0  0  0  0  0  0  0  0  0  0  0
   -4.8165    6.9058    0.0000 C   0  0  0  0  0  0  0  0  0  0  0  0
   -4.1020    7.3183    0.0000 C   0  0  0  0  0  0  0  0  0  0  0  0
   -3.3876    6.9058    0.0000 C   0  0  0  0  0  0  0  0  0  0  0  0
   -3.3876    6.0808    0.0000 C   0  0  0  0  0  0  0  0  0  0  0  0
   -2.6731    5.6683    0.0000 C   0  0  0  0  0  0  0  0  0  0  0  0
   -2.6731    4.8433    0.0000 C   0  0  0  0  0  0  0  0  0  0  0  0
   -1.9586    4.4308    0.0000 C   0  0  0  0  0  0  0  0  0  0  0  0
   -1.2442    4.8433    0.0000 O   0  0  0  0  0  0  0  0  0  0  0  0
   -1.9586    3.6058    0.0000 N   0  0  0  0  0  0  0  0  0  0  0  0
   -1.2442    3.1933    0.0000 C   0  0  0  0  0  0  0  0  0  0  0  0
   -0.5297    3.6058    0.0000 C   0  0  0  0  0  0  0  0  0  0  0  0
    0.1848    3.1933    0.0000 C   0  0  0  0  0  0  0  0  0  0  0  0
    0.1848    2.3683    0.0000 C   0  0  0  0  0  0  0  0  0  0  0  0
   -0.5297    1.9558    0.0000 C   0  0  0  0  0  0  0  0  0  0  0  0
   -0.5297    1.1308    0.0000 C   0  0  0  0  0  0  0  0  0  0  0  0
   -1.2442    0.7183    0.0000 C   0  0  0  0  0  0  0  0  0  0  0  0
   -1.9586    1.1308    0.0000 C   0  0  0  0  0  0  0  0  0  0  0  0
   -1.9586    1.9558    0.0000 C   0  0  0  0  0  0  0  0  0  0  0  0
   -1.2442    2.3683    0.0000 C   0  0  0  0  0  0  0  0  0  0  0  0
    0.1848    0.7183    0.0000 N   0  0  0  0  0  0  0  0  0  0  0  0
    0.1848   -0.1067    0.0000 C   0  0  0  0  0  0  0  0  0  0  0  0
   -0.5297   -0.5192    0.0000 O   0  0  0  0  0  0  0  0  0  0  0  0
    0.8993   -0.5192    0.0000 C   0  0  0  0  0  0  0  0  0  0  0  0
    1.6137   -0.1067    0.0000 C   0  0  0  0  0  0  0  0  0  0  0  0
    2.3282   -0.5192    0.0000 C   0  0  0  0  0  0  0  0  0  0  0  0
    3.0427   -0.1067    0.0000 C   0  0  0  0  0  0  0  0  0  0  0  0
    3.7571   -0.5192    0.0000 C   0  0  0  0  0  0  0  0  0  0  0  0
    3.7571   -1.3442    0.0000 C   0  0  0  0  0  0  0  0  0  0  0  0
    3.0427   -1.7567    0.0000 C   0  0  0  0  0  0  0  0  0  0  0  0
    2.3282   -1.3442    0.0000 C   0  0  0  0  0  0  0  0  0  0  0  0
    1.6137   -1.7567    0.0000 C   0  0  0  0  0  0  0  0  0  0  0  0
    1.6137   -2.5817    0.0000 N   0  0  0  0  0  0  0  0  0  0  0  0
    0.8993   -2.9942    0.0000 N   0  0  0  0  0  0  0  0  0  0  0  0
    0.8993   -3.8192    0.0000 C   0  0  0  0  0  0  0  0  0  0  0  0
    0.1848   -4.2317    0.0000 C   0  0  0  0  0  0  0  0  0  0  0  0
    0.1848   -5.0567    0.0000 C   0  0  0  0  0  0  0  0  0  0  0  0
    0.8993   -5.4692    0.0000 C   0  0  0  0  0  0  0  0  0  0  0  0
    1.6137   -5.0567    0.0000 C   0  0  0  0  0  0  0  0  0  0  0  0
    2.3282   -5.4692    0.0000 Cl  0  0  0  0  0  0  0  0  0  0  0  0
    1.6137   -4.2317    0.0000 C   0  0  0  0  0  0  0  0  0  0  0  0
    2.3282   -3.8192    0.0000 Cl  0  0  0  0  0  0  0  0  0  0  0  0
    0.8993   -1.3442    0.0000 C   0  0  0  0  0  0  0  0  0  0  0  0
    0.1848   -1.7567    0.0000 O   0  0  0  0  0  0  0  0  0  0  0  0
  1  2  1  0  0  0  0
  3  2  1  0  0  0  0
  4  3  1  4  0  0  0
  4  5  2  0  0  0  0
  5  6  1  0  0  0  0
  7  6  2  0  0  0  0
  8  7  1  0  0  0  0
  9  8  2  0  0  0  0
 10  9  1  0  0  0  0
 10 11  1  0  0  0  0
 12 10  2  0  0  0  0
  6 12  1  0  0  0  0
 12 13  1  0  0  0  0
 14  3  2  0  0  0  0
 14 15  1  0  0  0  0
 15 16  2  0  0  0  0
 16 17  1  0  0  0  0
 17 18  2  0  0  0  0
 18 19  1  0  0  0  0
 19 14  1  0  0  0  0
 20 19  2  0  0  0  0
 21 20  1  0  0  0  0
  2 21  2  0  0  0  0
 21 22  1  0  0  0  0
 22 23  2  0  0  0  0
 22 24  1  0  0  0  0
 24 25  1  0  0  0  0
 26 25  1  0  0  0  0
 27 26  2  0  0  0  0
 28 27  1  0  0  0  0
 29 28  2  0  0  0  0
 29 30  1  0  0  0  0
 30 31  2  0  0  0  0
 31 32  1  0  0  0  0
 32 33  2  0  0  0  0
 33 34  1  0  0  0  0
 25 34  2  0  0  0  0
 34 29  1  0  0  0  0
 30 35  1  0  0  0  0
 35 36  1  0  0  0  0
 36 37  2  0  0  0  0
 36 38  1  0  0  0  0
 39 38  1  0  0  0  0
 40 39  2  0  0  0  0
 40 41  1  0  0  0  0
 41 42  2  0  0  0  0
 42 43  1  0  0  0  0
 43 44  2  0  0  0  0
 44 45  1  0  0  0  0
 45 40  1  0  0  0  0
 46 45  2  0  0  0  0
 47 46  1  4  0  0  0
 47 48  2  0  0  0  0
 48 49  1  0  0  0  0
 50 49  2  0  0  0  0
 51 50  1  0  0  0  0
 52 51  2  0  0  0  0
 53 52  1  0  0  0  0
 53 54  1  0  0  0  0
 55 53  2  0  0  0  0
 49 55  1  0  0  0  0
 55 56  1  0  0  0  0
 57 46  1  0  0  0  0
 38 57  2  0  0  0  0
 57 58  1  0  0  0  0
M  END
> <RowID>
1371

> <Original_SMILES>
OC1C(N=NC2=CC=CC(Cl)=C2Cl)=C2C=CC=CC2=CC=1C(=O)NC1C=CC=C2C(=CC=CC=12)NC(=O)C1C=C2C=CC=CC2=C(N=NC2=CC=CC(Cl)=C2Cl)C=1O

> <Canonical_QSARr>
OC1C(N=NC2=CC=CC(Cl)=C2Cl)=C2C=CC=CC2=CC=1C(=O)NC1C=CC=C2C(=CC=CC=12)NC(=O)C1C=C2C=CC=CC2=C(N=NC2=CC=CC(Cl)=C2Cl)C=1O

> <InChI_Code_QSARr>
InChI=1S/C44H26Cl4N6O4/c45-31-15-7-19-35(37(31)47)51-53-39-25-11-3-1-9-23(25)21-29(41(39)55)43(57)49-33-17-5-14-28-27(33)13-6-18-34(28)50-44(58)30-22-24-10-2-4-12-26(24)40(42(30)56)54-52-36-20-8-16-32(46)38(36)48/h1-22,55-56H,(H,49,57)(H,50,58)

> <InChI Key_QSARr>
JFWLZGFQYNTGAI-UHFFFAOYSA-N

> <Salt_Solvent>


> <Salt_Solvent_ID>
0

> <Number of connected components>
1

$$$$
Molecule_1372
  Mrv2316 01072400032D          

 16 16  0  0  0  0            999 V2000
    2.3667    1.1086    0.0000 N   0  0  0  0  0  0  0  0  0  0  0  0
    1.6522    0.6961    0.0000 C   0  0  0  0  0  0  0  0  0  0  0  0
    0.9377    1.1086    0.0000 C   0  0  0  0  0  0  0  0  0  0  0  0
    0.9377    1.9336    0.0000 I   0  0  0  0  0  0  0  0  0  0  0  0
    0.2233    0.6961    0.0000 C   0  0  0  0  0  0  0  0  0  0  0  0
   -0.4912    1.1086    0.0000 C   0  0  0  0  0  0  0  0  0  0  0  0
   -1.2057    0.6961    0.0000 O   0  0  0  0  0  0  0  0  0  0  0  0
   -0.4912    1.9336    0.0000 O   0  0  0  0  0  0  0  0  0  0  0  0
    0.2233   -0.1289    0.0000 C   0  0  0  0  0  0  0  0  0  0  0  0
   -0.4912   -0.5414    0.0000 I   0  0  0  0  0  0  0  0  0  0  0  0
    0.9377   -0.5414    0.0000 C   0  0  0  0  0  0  0  0  0  0  0  0
    0.9377   -1.3664    0.0000 C   0  0  0  0  0  0  0  0  0  0  0  0
    1.6522   -1.7789    0.0000 O   0  0  0  0  0  0  0  0  0  0  0  0
    0.2233   -1.7789    0.0000 O   0  0  0  0  0  0  0  0  0  0  0  0
    1.6522   -0.1289    0.0000 C   0  0  0  0  0  0  0  0  0  0  0  0
    2.3667   -0.5414    0.0000 I   0  0  0  0  0  0  0  0  0  0  0  0
  1  2  1  0  0  0  0
  3  2  1  0  0  0  0
  3  4  1  0  0  0  0
  5  3  2  0  0  0  0
  5  6  1  0  0  0  0
  6  7  1  0  0  0  0
  6  8  2  0  0  0  0
  9  5  1  0  0  0  0
  9 10  1  0  0  0  0
 11  9  2  0  0  0  0
 11 12  1  0  0  0  0
 12 13  1  0  0  0  0
 12 14  2  0  0  0  0
 15 11  1  0  0  0  0
  2 15  2  0  0  0  0
 15 16  1  0  0  0  0
M  END
> <RowID>
1372

> <Original_SMILES>
NC1C(I)=C(C(I)=C(C=1I)C(O)=O)C(O)=O

> <Canonical_QSARr>
NC1C(I)=C(C(I)=C(C=1I)C(O)=O)C(O)=O

> <InChI_Code_QSARr>
InChI=1S/C8H4I3NO4/c9-3-1(7(13)14)4(10)6(12)5(11)2(3)8(15)16/h12H2,(H,13,14)(H,15,16)

> <InChI Key_QSARr>
JEZJSNULLBSYHV-UHFFFAOYSA-N

> <Salt_Solvent>


> <Salt_Solvent_ID>
0

> <Number of connected components>
1

$$$$
Molecule_1373
  Mrv2316 01072400032D          

  3  2  0  0  0  0            999 V2000
    1.2375   -0.7145    0.0000 C   0  0  0  0  0  0  0  0  0  0  0  0
    1.9520   -1.1270    0.0000 C   0  0  0  0  0  0  0  0  0  0  0  0
    2.6664   -0.7145    0.0000 S   0  0  0  0  0  0  0  0  0  0  0  0
  1  2  1  0  0  0  0
  2  3  1  0  0  0  0
M  END
> <RowID>
1373

> <Original_SMILES>
CCS

> <Canonical_QSARr>
CCS

> <InChI_Code_QSARr>
InChI=1S/C2H6S/c1-2-3/h3H,2H2,1H3

> <InChI Key_QSARr>
DNJIEGIFACGWOD-UHFFFAOYSA-N

> <Salt_Solvent>


> <Salt_Solvent_ID>
0

> <Number of connected components>
1

$$$$
Molecule_1374
  Mrv2316 01072400032D          

  9  8  0  0  0  0            999 V2000
   -0.1914    0.7145    0.0000 C   0  0  0  0  0  0  0  0  0  0  0  0
    0.5230    1.1270    0.0000 C   0  0  0  0  0  0  0  0  0  0  0  0
    0.5230    1.9520    0.0000 C   0  0  0  0  0  0  0  0  0  0  0  0
    1.2375    0.7145    0.0000 C   0  0  0  0  0  0  0  0  0  0  0  0
    1.9520    1.1270    0.0000 C   0  0  0  0  0  0  0  0  0  0  0  0
    1.9520    1.9520    0.0000 N   0  0  0  0  0  0  0  0  0  0  0  0
    2.6664    0.7145    0.0000 C   0  0  0  0  0  0  0  0  0  0  0  0
    3.3809    1.1270    0.0000 O   0  0  0  0  0  0  0  0  0  0  0  0
    2.6664   -0.1105    0.0000 O   0  0  0  0  0  0  0  0  0  0  0  0
  1  2  1  0  0  0  0
  2  3  1  0  0  0  0
  2  4  1  0  0  0  0
  4  5  1  0  0  0  0
  5  6  1  0  0  0  0
  5  7  1  0  0  0  0
  7  8  1  0  0  0  0
  7  9  2  0  0  0  0
M  END
> <RowID>
1374

> <Original_SMILES>
CC(C)CC(N)C(O)=O

> <Canonical_QSARr>
CC(C)CC(N)C(O)=O

> <InChI_Code_QSARr>
InChI=1S/C6H13NO2/c1-4(2)3-5(7)6(8)9/h4-5H,3,7H2,1-2H3,(H,8,9)

> <InChI Key_QSARr>
ROHFNLRQFUQHCH-UHFFFAOYSA-N

> <Salt_Solvent>


> <Salt_Solvent_ID>
0

> <Number of connected components>
1

$$$$
Molecule_1375
  Mrv2316 01072400032D          

 17 16  0  0  0  0            999 V2000
    3.9039    2.2539    0.0000 C   0  0  0  0  0  0  0  0  0  0  0  0
    3.9039    1.4289    0.0000 C   0  0  0  0  0  0  0  0  0  0  0  0
    4.6184    1.0164    0.0000 C   0  0  0  0  0  0  0  0  0  0  0  0
    5.3329    1.4289    0.0000 Cl  0  0  0  0  0  0  0  0  0  0  0  0
    3.1895    1.0164    0.0000 O   0  0  0  0  0  0  0  0  0  0  0  0
    2.4750    1.4289    0.0000 P   0  0  0  0  0  0  0  0  0  0  0  0
    2.8875    2.1434    0.0000 O   0  0  0  0  0  0  0  0  0  0  0  0
    1.7605    1.8414    0.0000 O   0  0  0  0  0  0  0  0  0  0  0  0
    1.7605    2.6664    0.0000 C   0  0  0  0  0  0  0  0  0  0  0  0
    1.0461    3.0789    0.0000 C   0  0  0  0  0  0  0  0  0  0  0  0
    2.4750    3.0789    0.0000 C   0  0  0  0  0  0  0  0  0  0  0  0
    2.4750    3.9039    0.0000 Cl  0  0  0  0  0  0  0  0  0  0  0  0
    2.0625    0.7144    0.0000 O   0  0  0  0  0  0  0  0  0  0  0  0
    1.2375    0.7144    0.0000 C   0  0  0  0  0  0  0  0  0  0  0  0
    0.8250    1.4289    0.0000 C   0  0  0  0  0  0  0  0  0  0  0  0
    0.8250   -0.0000    0.0000 C   0  0  0  0  0  0  0  0  0  0  0  0
   -0.0000   -0.0000    0.0000 Cl  0  0  0  0  0  0  0  0  0  0  0  0
  1  2  1  0  0  0  0
  2  3  1  0  0  0  0
  3  4  1  0  0  0  0
  2  5  1  0  0  0  0
  5  6  1  0  0  0  0
  6  7  2  0  0  0  0
  6  8  1  0  0  0  0
  8  9  1  0  0  0  0
  9 10  1  0  0  0  0
  9 11  1  0  0  0  0
 11 12  1  0  0  0  0
  6 13  1  0  0  0  0
 13 14  1  0  0  0  0
 14 15  1  0  0  0  0
 14 16  1  0  0  0  0
 16 17  1  0  0  0  0
M  END
> <RowID>
1375

> <Original_SMILES>
CC(CCl)OP(=O)(OC(C)CCl)OC(C)CCl

> <Canonical_QSARr>
CC(CCl)OP(=O)(OC(C)CCl)OC(C)CCl

> <InChI_Code_QSARr>
InChI=1S/C9H18Cl3O4P/c1-7(4-10)14-17(13,15-8(2)5-11)16-9(3)6-12/h7-9H,4-6H2,1-3H3

> <InChI Key_QSARr>
KVMPUXDNESXNOH-UHFFFAOYSA-N

> <Salt_Solvent>


> <Salt_Solvent_ID>
0

> <Number of connected components>
1

$$$$
Molecule_1377
  Mrv2316 01072400032D          

 15 16  0  0  0  0            999 V2000
    1.5395   -1.2375    0.0000 O   0  0  0  0  0  0  0  0  0  0  0  0
    0.7145   -1.2375    0.0000 Si  0  0  0  0  0  0  0  0  0  0  0  0
   -0.1105   -1.2375    0.0000 O   0  0  0  0  0  0  0  0  0  0  0  0
    0.7145   -2.0625    0.0000 C   0  0  0  0  0  0  0  0  0  0  0  0
    0.0000   -2.4750    0.0000 C   0  0  0  0  0  0  0  0  0  0  0  0
    0.0000   -3.3000    0.0000 C   0  0  0  0  0  0  0  0  0  0  0  0
    0.7145   -3.7125    0.0000 C   0  0  0  0  0  0  0  0  0  0  0  0
    1.4289   -3.3000    0.0000 C   0  0  0  0  0  0  0  0  0  0  0  0
    1.4289   -2.4750    0.0000 C   0  0  0  0  0  0  0  0  0  0  0  0
    0.7145   -0.4125    0.0000 C   0  0  0  0  0  0  0  0  0  0  0  0
    1.4289    0.0000    0.0000 C   0  0  0  0  0  0  0  0  0  0  0  0
    1.4289    0.8250    0.0000 C   0  0  0  0  0  0  0  0  0  0  0  0
    0.7145    1.2375    0.0000 C   0  0  0  0  0  0  0  0  0  0  0  0
    0.0000    0.8250    0.0000 C   0  0  0  0  0  0  0  0  0  0  0  0
    0.0000    0.0000    0.0000 C   0  0  0  0  0  0  0  0  0  0  0  0
  1  2  1  0  0  0  0
  2  3  1  0  0  0  0
  2  4  1  0  0  0  0
  5  4  1  0  0  0  0
  6  5  2  0  0  0  0
  7  6  1  0  0  0  0
  8  7  2  0  0  0  0
  9  8  1  0  0  0  0
  4  9  2  0  0  0  0
  2 10  1  0  0  0  0
 11 10  1  0  0  0  0
 12 11  2  0  0  0  0
 13 12  1  0  0  0  0
 14 13  2  0  0  0  0
 15 14  1  0  0  0  0
 10 15  2  0  0  0  0
M  END
> <RowID>
1377

> <Original_SMILES>
O[Si](O)(C1C=CC=CC=1)C1C=CC=CC=1

> <Canonical_QSARr>
O[Si](O)(C1C=CC=CC=1)C1C=CC=CC=1

> <InChI_Code_QSARr>
InChI=1S/C12H12O2Si/c13-15(14,11-7-3-1-4-8-11)12-9-5-2-6-10-12/h1-10,13-14H

> <InChI Key_QSARr>
OLLFKUHHDPMQFR-UHFFFAOYSA-N

> <Salt_Solvent>


> <Salt_Solvent_ID>
0

> <Number of connected components>
1

$$$$
Molecule_1378
  Mrv2316 01072400032D          

  7  6  0  0  0  0            999 V2000
    1.2375    2.1434    0.0000 C   0  0  0  0  0  0  0  0  0  0  0  0
    0.8250    1.4289    0.0000 O   0  0  0  0  0  0  0  0  0  0  0  0
    1.2375    0.7145    0.0000 C   0  0  0  0  0  0  0  0  0  0  0  0
    2.0625    0.7145    0.0000 O   0  0  0  0  0  0  0  0  0  0  0  0
    0.8250   -0.0000    0.0000 C   0  0  0  0  0  0  0  0  0  0  0  0
    1.2375   -0.7145    0.0000 C   0  0  0  0  0  0  0  0  0  0  0  0
    0.0000   -0.0000    0.0000 Cl  0  0  0  0  0  0  0  0  0  0  0  0
  1  2  1  0  0  0  0
  2  3  1  0  0  0  0
  3  4  2  0  0  0  0
  3  5  1  0  0  0  0
  5  6  1  0  0  0  0
  5  7  1  0  0  0  0
M  END
> <RowID>
1378

> <Original_SMILES>
COC(=O)C(C)Cl

> <Canonical_QSARr>
COC(=O)C(C)Cl

> <InChI_Code_QSARr>
InChI=1S/C4H7ClO2/c1-3(5)4(6)7-2/h3H,1-2H3

> <InChI Key_QSARr>
JLEJCNOTNLZCHQ-UHFFFAOYSA-N

> <Salt_Solvent>


> <Salt_Solvent_ID>
0

> <Number of connected components>
1

$$$$
Molecule_1379
  Mrv2316 01072400032D          

 60 65  0  0  0  0            999 V2000
    6.4660   -3.7331    0.0000 O   0  0  0  0  0  0  0  0  0  0  0  0
    5.7515   -4.1456    0.0000 S   0  0  0  0  0  0  0  0  0  0  0  0
    6.1640   -4.8601    0.0000 O   0  0  0  0  0  0  0  0  0  0  0  0
    5.3390   -3.4312    0.0000 O   0  0  0  0  0  0  0  0  0  0  0  0
    5.0370   -4.5581    0.0000 C   0  0  0  0  0  0  0  0  0  0  0  0
    4.3226   -4.1456    0.0000 C   0  0  0  0  0  0  0  0  0  0  0  0
    4.3226   -3.3206    0.0000 C   0  0  0  0  0  0  0  0  0  0  0  0
    5.0370   -2.9081    0.0000 C   0  0  0  0  0  0  0  0  0  0  0  0
    5.0370   -2.0831    0.0000 C   0  0  0  0  0  0  0  0  0  0  0  0
    5.7515   -1.6706    0.0000 C   0  0  0  0  0  0  0  0  0  0  0  0
    6.4660   -2.0831    0.0000 S   0  0  0  0  0  0  0  0  0  0  0  0
    7.1804   -2.4956    0.0000 O   0  0  0  0  0  0  0  0  0  0  0  0
    6.8785   -1.3687    0.0000 O   0  0  0  0  0  0  0  0  0  0  0  0
    6.0535   -2.7976    0.0000 O   0  0  0  0  0  0  0  0  0  0  0  0
    5.7515   -0.8456    0.0000 C   0  0  0  0  0  0  0  0  0  0  0  0
    5.0370   -0.4331    0.0000 C   0  0  0  0  0  0  0  0  0  0  0  0
    5.0370    0.3919    0.0000 N   0  0  0  0  0  0  0  0  0  0  0  0
    4.3226    0.8044    0.0000 C   0  0  0  0  0  0  0  0  0  0  0  0
    4.3226    1.6294    0.0000 N   0  0  0  0  0  0  0  0  0  0  0  0
    3.6081    2.0419    0.0000 C   0  0  0  0  0  0  0  0  0  0  0  0
    3.6081    2.8669    0.0000 N   0  0  0  0  0  0  0  0  0  0  0  0
    2.8936    3.2794    0.0000 C   0  0  0  0  0  0  0  0  0  0  0  0
    2.1791    2.8669    0.0000 C   0  0  0  0  0  0  0  0  0  0  0  0
    1.4647    3.2794    0.0000 O   0  0  0  0  0  0  0  0  0  0  0  0
    4.3226    3.2794    0.0000 C   0  0  0  0  0  0  0  0  0  0  0  0
    2.8936    1.6294    0.0000 N   0  0  0  0  0  0  0  0  0  0  0  0
    2.8936    0.8044    0.0000 C   0  0  0  0  0  0  0  0  0  0  0  0
    2.1791    0.3919    0.0000 N   0  0  0  0  0  0  0  0  0  0  0  0
    1.4647    0.8044    0.0000 C   0  0  0  0  0  0  0  0  0  0  0  0
    1.4647    1.6294    0.0000 C   0  0  0  0  0  0  0  0  0  0  0  0
    0.7502    2.0419    0.0000 C   0  0  0  0  0  0  0  0  0  0  0  0
    0.0357    1.6294    0.0000 C   0  0  0  0  0  0  0  0  0  0  0  0
    0.0357    0.8044    0.0000 C   0  0  0  0  0  0  0  0  0  0  0  0
    0.7502    0.3919    0.0000 C   0  0  0  0  0  0  0  0  0  0  0  0
    3.6081    0.3919    0.0000 N   0  0  0  0  0  0  0  0  0  0  0  0
    4.3226   -0.8456    0.0000 C   0  0  0  0  0  0  0  0  0  0  0  0
    4.3226   -1.6706    0.0000 C   0  0  0  0  0  0  0  0  0  0  0  0
    3.6081   -4.5581    0.0000 C   0  0  0  0  0  0  0  0  0  0  0  0
    3.6081   -5.3831    0.0000 C   0  0  0  0  0  0  0  0  0  0  0  0
    4.3226   -5.7956    0.0000 C   0  0  0  0  0  0  0  0  0  0  0  0
    4.3226   -6.6206    0.0000 N   0  0  0  0  0  0  0  0  0  0  0  0
    5.0370   -7.0331    0.0000 C   0  0  0  0  0  0  0  0  0  0  0  0
    5.0370   -7.8581    0.0000 N   0  0  0  0  0  0  0  0  0  0  0  0
    5.7515   -8.2706    0.0000 C   0  0  0  0  0  0  0  0  0  0  0  0
    5.7515   -9.0956    0.0000 N   0  0  0  0  0  0  0  0  0  0  0  0
    6.4660   -9.5081    0.0000 C   0  0  0  0  0  0  0  0  0  0  0  0
    6.4660  -10.3331    0.0000 C   0  0  0  0  0  0  0  0  0  0  0  0
    7.1804  -10.7456    0.0000 C   0  0  0  0  0  0  0  0  0  0  0  0
    7.8949  -10.3331    0.0000 C   0  0  0  0  0  0  0  0  0  0  0  0
    7.8949   -9.5081    0.0000 C   0  0  0  0  0  0  0  0  0  0  0  0
    7.1804   -9.0956    0.0000 C   0  0  0  0  0  0  0  0  0  0  0  0
    6.4660   -7.8581    0.0000 N   0  0  0  0  0  0  0  0  0  0  0  0
    6.4660   -7.0331    0.0000 C   0  0  0  0  0  0  0  0  0  0  0  0
    7.1804   -6.6206    0.0000 N   0  0  0  0  0  0  0  0  0  0  0  0
    7.1804   -5.7956    0.0000 C   0  0  0  0  0  0  0  0  0  0  0  0
    7.8949   -7.0331    0.0000 C   0  0  0  0  0  0  0  0  0  0  0  0
    8.6094   -6.6206    0.0000 C   0  0  0  0  0  0  0  0  0  0  0  0
    9.3238   -7.0331    0.0000 O   0  0  0  0  0  0  0  0  0  0  0  0
    5.7515   -6.6206    0.0000 N   0  0  0  0  0  0  0  0  0  0  0  0
    5.0370   -5.3831    0.0000 C   0  0  0  0  0  0  0  0  0  0  0  0
  1  2  1  0  0  0  0
  2  3  2  0  0  0  0
  2  4  2  0  0  0  0
  2  5  1  0  0  0  0
  6  5  1  0  0  0  0
  7  6  1  4  0  0  0
  7  8  2  0  0  0  0
  8  9  1  0  0  0  0
 10  9  2  0  0  0  0
 10 11  1  0  0  0  0
 11 12  1  0  0  0  0
 11 13  2  0  0  0  0
 11 14  2  0  0  0  0
 15 10  1  0  0  0  0
 16 15  2  0  0  0  0
 16 17  1  0  0  0  0
 17 18  1  0  0  0  0
 19 18  2  0  0  0  0
 20 19  1  0  0  0  0
 20 21  1  0  0  0  0
 21 22  1  0  0  0  0
 22 23  1  0  0  0  0
 23 24  1  0  0  0  0
 21 25  1  0  0  0  0
 26 20  2  0  0  0  0
 27 26  1  0  0  0  0
 27 28  1  0  0  0  0
 28 29  1  0  0  0  0
 30 29  2  0  0  0  0
 31 30  1  0  0  0  0
 32 31  2  0  0  0  0
 33 32  1  0  0  0  0
 34 33  2  0  0  0  0
 29 34  1  0  0  0  0
 35 27  2  0  0  0  0
 18 35  1  0  0  0  0
 36 16  1  0  0  0  0
 37 36  2  0  0  0  0
  9 37  1  0  0  0  0
 38  6  2  0  0  0  0
 39 38  1  0  0  0  0
 40 39  2  0  0  0  0
 40 41  1  0  0  0  0
 41 42  1  0  0  0  0
 43 42  1  0  0  0  0
 44 43  2  0  0  0  0
 44 45  1  0  0  0  0
 45 46  1  0  0  0  0
 47 46  2  0  0  0  0
 48 47  1  0  0  0  0
 49 48  2  0  0  0  0
 50 49  1  0  0  0  0
 51 50  2  0  0  0  0
 46 51  1  0  0  0  0
 52 44  1  0  0  0  0
 53 52  2  0  0  0  0
 53 54  1  0  0  0  0
 54 55  1  0  0  0  0
 54 56  1  0  0  0  0
 56 57  1  0  0  0  0
 57 58  1  0  0  0  0
 59 53  1  0  0  0  0
 42 59  2  0  0  0  0
 60 40  1  0  0  0  0
  5 60  2  0  0  0  0
M  END
> <RowID>
1379

> <Original_SMILES>
[Na+].[Na+].CN(CCO)C1=NC(NC2C=C(C(C=CC3=CC=C(C=C3S([O-])(=O)=O)NC3=NC(NC4C=CC=CC=4)=NC(=N3)N(C)CCO)=CC=2)S([O-])(=O)=O)=NC(NC2C=CC=CC=2)=N1

> <Canonical_QSARr>
CN(CCO)C1N=C(NC2C=C(C(C=CC3C=CC(=CC=3S(O)(=O)=O)NC3=NC(=NC(NC4C=CC=CC=4)=N3)N(C)CCO)=CC=2)S(O)(=O)=O)N=C(NC2C=CC=CC=2)N=1

> <InChI_Code_QSARr>
InChI=1S/C38H40N12O8S2/c1-49(19-21-51)37-45-33(39-27-9-5-3-6-10-27)43-35(47-37)41-29-17-15-25(31(23-29)59(53,54)55)13-14-26-16-18-30(24-32(26)60(56,57)58)42-36-44-34(40-28-11-7-4-8-12-28)46-38(48-36)50(2)20-22-52/h3-18,23-24,51-52H,19-22H2,1-2H3,(H,53,54,55)(H,56,57,58)(H2,39,41,43,45,47)(H2,40,42,44,46,48)

> <InChI Key_QSARr>
WNUUEQSIAHJIGU-UHFFFAOYSA-N

> <Salt_Solvent>
[Na+]

> <Salt_Solvent_ID>
110

> <Number of connected components>
3

$$$$
Molecule_1380
  Mrv2316 01072400032D          

 27 29  0  0  0  0            999 V2000
   -0.1323    0.4125    0.0000 O   0  0  0  0  0  0  0  0  0  0  0  0
    0.5822    0.0000    0.0000 S   0  0  0  0  0  0  0  0  0  0  0  0
    0.1697   -0.7144    0.0000 O   0  0  0  0  0  0  0  0  0  0  0  0
    0.9947    0.7145    0.0000 O   0  0  0  0  0  0  0  0  0  0  0  0
    1.2966   -0.4125    0.0000 C   0  0  0  0  0  0  0  0  0  0  0  0
    2.0111    0.0000    0.0000 C   0  0  0  0  0  0  0  0  0  0  0  0
    2.7256   -0.4125    0.0000 C   0  0  0  0  0  0  0  0  0  0  0  0
    3.4401    0.0000    0.0000 C   0  0  0  0  0  0  0  0  0  0  0  0
    4.1545   -0.4125    0.0000 C   0  0  0  0  0  0  0  0  0  0  0  0
    4.1545   -1.2375    0.0000 C   0  0  0  0  0  0  0  0  0  0  0  0
    3.4401   -1.6500    0.0000 C   0  0  0  0  0  0  0  0  0  0  0  0
    3.4401   -2.4750    0.0000 N   0  0  0  0  0  0  0  0  0  0  0  0
    2.7256   -2.8875    0.0000 N   0  0  0  0  0  0  0  0  0  0  0  0
    2.7256   -3.7125    0.0000 C   0  0  0  0  0  0  0  0  0  0  0  0
    2.0111   -4.1250    0.0000 C   0  0  0  0  0  0  0  0  0  0  0  0
    2.0111   -4.9500    0.0000 C   0  0  0  0  0  0  0  0  0  0  0  0
    2.7256   -5.3625    0.0000 C   0  0  0  0  0  0  0  0  0  0  0  0
    2.7256   -6.1875    0.0000 S   0  0  0  0  0  0  0  0  0  0  0  0
    2.7256   -7.0125    0.0000 O   0  0  0  0  0  0  0  0  0  0  0  0
    1.9006   -6.1875    0.0000 O   0  0  0  0  0  0  0  0  0  0  0  0
    3.5506   -6.1875    0.0000 O   0  0  0  0  0  0  0  0  0  0  0  0
    3.4401   -4.9500    0.0000 C   0  0  0  0  0  0  0  0  0  0  0  0
    3.4401   -4.1250    0.0000 C   0  0  0  0  0  0  0  0  0  0  0  0
    2.7256   -1.2375    0.0000 C   0  0  0  0  0  0  0  0  0  0  0  0
    2.0111   -1.6500    0.0000 C   0  0  0  0  0  0  0  0  0  0  0  0
    1.2966   -1.2375    0.0000 C   0  0  0  0  0  0  0  0  0  0  0  0
    4.8690   -1.6500    0.0000 O   0  0  0  0  0  0  0  0  0  0  0  0
  1  2  1  0  0  0  0
  2  3  2  0  0  0  0
  2  4  2  0  0  0  0
  2  5  1  0  0  0  0
  6  5  1  0  0  0  0
  7  6  2  0  0  0  0
  7  8  1  0  0  0  0
  8  9  2  0  0  0  0
  9 10  1  0  0  0  0
 10 11  2  0  0  0  0
 12 11  1  4  0  0  0
 12 13  2  0  0  0  0
 13 14  1  0  0  0  0
 15 14  2  0  0  0  0
 16 15  1  0  0  0  0
 17 16  2  0  0  0  0
 17 18  1  0  0  0  0
 18 19  1  0  0  0  0
 18 20  2  0  0  0  0
 18 21  2  0  0  0  0
 22 17  1  0  0  0  0
 23 22  2  0  0  0  0
 14 23  1  0  0  0  0
 11 24  1  0  0  0  0
 24  7  1  0  0  0  0
 25 24  2  0  0  0  0
 26 25  1  0  0  0  0
  5 26  2  0  0  0  0
 10 27  1  0  0  0  0
M  END
> <RowID>
1380

> <Original_SMILES>
[Na+].[Na+].[O-]S(=O)(=O)C1C=CC(=CC=1)N=NC1=C(O)C=CC2C=C(C=CC=21)S([O-])(=O)=O

> <Canonical_QSARr>
OC1C=CC2=CC(=CC=C2C=1N=NC1C=CC(=CC=1)S(O)(=O)=O)S(O)(=O)=O

> <InChI_Code_QSARr>
InChI=1S/C16H12N2O7S2/c19-15-8-1-10-9-13(27(23,24)25)6-7-14(10)16(15)18-17-11-2-4-12(5-3-11)26(20,21)22/h1-9,19H,(H,20,21,22)(H,23,24,25)

> <InChI Key_QSARr>
KEYWXKLGZZGHMT-UHFFFAOYSA-N

> <Salt_Solvent>
[Na+]

> <Salt_Solvent_ID>
110

> <Number of connected components>
3

$$$$
Molecule_1381
  Mrv2316 01072400032D          

  6  5  0  0  0  0            999 V2000
    1.2375   -0.7145    0.0000 S   0  0  0  0  0  0  0  0  0  0  0  0
    0.8250   -0.0000    0.0000 C   0  0  0  0  0  0  0  0  0  0  0  0
    1.2375    0.7145    0.0000 N   0  0  0  0  0  0  0  0  0  0  0  0
    0.8250    1.4289    0.0000 C   0  0  0  0  0  0  0  0  0  0  0  0
    2.0625    0.7145    0.0000 C   0  0  0  0  0  0  0  0  0  0  0  0
    0.0000   -0.0000    0.0000 S   0  0  0  0  0  0  0  0  0  0  0  0
  1  2  1  0  0  0  0
  2  3  1  0  0  0  0
  3  4  1  0  0  0  0
  3  5  1  0  0  0  0
  2  6  2  0  0  0  0
M  END
> <RowID>
1381

> <Original_SMILES>
[K+].CN(C)C([S-])=S

> <Canonical_QSARr>
CN(C)C(S)=S

> <InChI_Code_QSARr>
InChI=1S/C3H7NS2/c1-4(2)3(5)6/h1-2H3,(H,5,6)

> <InChI Key_QSARr>
MZGNSEAPZQGJRB-UHFFFAOYSA-N

> <Salt_Solvent>
[K+]

> <Salt_Solvent_ID>
190

> <Number of connected components>
2

$$$$
Molecule_1382
  Mrv2316 01072400032D          

 25 27  0  0  0  0            999 V2000
    1.1432   -4.1250    0.0000 C   0  0  0  0  0  0  0  0  0  0  0  0
    0.4287   -3.7125    0.0000 O   0  0  0  0  0  0  0  0  0  0  0  0
   -0.2858   -4.1250    0.0000 C   0  0  0  0  0  0  0  0  0  0  0  0
   -1.0003   -3.7125    0.0000 C   0  0  0  0  0  0  0  0  0  0  0  0
   -1.0003   -2.8875    0.0000 N   0  0  0  0  0  0  0  0  0  0  0  0
   -0.2858   -2.4750    0.0000 N   0  0  0  0  0  0  0  0  0  0  0  0
   -0.2858   -1.6500    0.0000 C   0  0  0  0  0  0  0  0  0  0  0  0
    0.4287   -1.2375    0.0000 C   0  0  0  0  0  0  0  0  0  0  0  0
    0.4287   -0.4125    0.0000 C   0  0  0  0  0  0  0  0  0  0  0  0
    1.1432   -0.0000    0.0000 C   0  0  0  0  0  0  0  0  0  0  0  0
    1.8576   -0.4125    0.0000 C   0  0  0  0  0  0  0  0  0  0  0  0
    1.8576   -1.2375    0.0000 C   0  0  0  0  0  0  0  0  0  0  0  0
    2.5721   -1.6500    0.0000 N   0  3  0  0  0  0  0  0  0  0  0  0
    3.2866   -2.0625    0.0000 C   0  0  0  0  0  0  0  0  0  0  0  0
    2.1596   -2.3645    0.0000 C   0  0  0  0  0  0  0  0  0  0  0  0
    2.9846   -0.9355    0.0000 C   0  0  0  0  0  0  0  0  0  0  0  0
    1.1432   -1.6500    0.0000 C   0  0  0  0  0  0  0  0  0  0  0  0
   -0.2858   -0.0000    0.0000 C   0  0  0  0  0  0  0  0  0  0  0  0
   -1.0003   -0.4125    0.0000 C   0  0  0  0  0  0  0  0  0  0  0  0
   -1.0003   -1.2375    0.0000 C   0  0  0  0  0  0  0  0  0  0  0  0
   -1.7147   -1.6500    0.0000 O   0  0  0  0  0  0  0  0  0  0  0  0
   -1.7147   -4.1250    0.0000 C   0  0  0  0  0  0  0  0  0  0  0  0
   -1.7147   -4.9500    0.0000 C   0  0  0  0  0  0  0  0  0  0  0  0
   -1.0003   -5.3625    0.0000 C   0  0  0  0  0  0  0  0  0  0  0  0
   -0.2858   -4.9500    0.0000 C   0  0  0  0  0  0  0  0  0  0  0  0
  1  2  1  0  0  0  0
  2  3  1  0  0  0  0
  4  3  1  0  0  0  0
  5  4  1  4  0  0  0
  5  6  2  0  0  0  0
  6  7  1  0  0  0  0
  8  7  1  0  0  0  0
  8  9  1  0  0  0  0
  9 10  2  0  0  0  0
 10 11  1  0  0  0  0
 11 12  2  0  0  0  0
 12 13  1  0  0  0  0
 13 14  1  0  0  0  0
 13 15  1  0  0  0  0
 13 16  1  0  0  0  0
 12 17  1  0  0  0  0
 17  8  2  0  0  0  0
 18  9  1  0  0  0  0
 19 18  2  0  0  0  0
 20 19  1  0  0  0  0
  7 20  2  0  0  0  0
 20 21  1  0  0  0  0
 22  4  2  0  0  0  0
 23 22  1  0  0  0  0
 24 23  2  0  0  0  0
 25 24  1  0  0  0  0
  3 25  2  0  0  0  0
M  CHG  1  13   1
M  END
> <RowID>
1382

> <Original_SMILES>
[Cl-].COC1=CC=CC=C1N=NC1=C(O)C=CC2=CC=C(C=C21)[N+](C)(C)C

> <Canonical_QSARr>
COC1=CC=CC=C1N=NC1=C(O)C=CC2=CC=C(C=C21)[N+](C)(C)C

> <InChI_Code_QSARr>
InChI=1S/C20H21N3O2/c1-23(2,3)15-11-9-14-10-12-18(24)20(16(14)13-15)22-21-17-7-5-6-8-19(17)25-4/h5-13H,1-4H3/p+1

> <InChI Key_QSARr>
JRLHNNXKFJWBJQ-UHFFFAOYSA-O

> <Salt_Solvent>
[Cl-]

> <Salt_Solvent_ID>
170

> <Number of connected components>
2

$$$$
Molecule_1383
  Mrv2316 01072400032D          

 11 11  0  0  0  0            999 V2000
   -1.6263    0.5137    0.0000 C   0  0  0  0  0  0  0  0  0  0  0  0
   -0.8417    0.2587    0.0000 C   0  0  0  0  0  0  0  0  0  0  0  0
   -0.5867   -0.5259    0.0000 C   0  0  0  0  0  0  0  0  0  0  0  0
    0.2383   -0.5259    0.0000 C   0  0  0  0  0  0  0  0  0  0  0  0
    0.4932    0.2587    0.0000 C   0  0  0  0  0  0  0  0  0  0  0  0
    1.2778    0.5137    0.0000 C   0  0  0  0  0  0  0  0  0  0  0  0
    1.4494    1.3206    0.0000 C   0  0  0  0  0  0  0  0  0  0  0  0
    1.6209    2.1276    0.0000 N   0  0  0  0  0  0  0  0  0  0  0  0
   -0.1742    0.7436    0.0000 C   0  0  0  0  0  0  0  0  0  0  0  0
    0.2308    1.4624    0.0000 C   0  0  0  0  0  0  0  0  0  0  0  0
   -0.5792    1.4624    0.0000 C   0  0  0  0  0  0  0  0  0  0  0  0
  1  2  1  0  0  0  0
  3  2  2  0  0  0  0
  4  3  1  0  0  0  0
  5  4  1  0  0  0  0
  5  6  1  0  0  0  0
  6  7  1  0  0  0  0
  7  8  3  0  0  0  0
  9  5  1  0  0  0  0
  2  9  1  0  0  0  0
  9 10  1  0  0  0  0
  9 11  1  0  0  0  0
M  END
> <RowID>
1383

> <Original_SMILES>
CC1=CCC(CC#N)C1(C)C

> <Canonical_QSARr>
CC1=CCC(CC#N)C1(C)C

> <InChI_Code_QSARr>
InChI=1S/C10H15N/c1-8-4-5-9(6-7-11)10(8,2)3/h4,9H,5-6H2,1-3H3

> <InChI Key_QSARr>
YYJOTFQPYNOYAB-UHFFFAOYSA-N

> <Salt_Solvent>


> <Salt_Solvent_ID>
0

> <Number of connected components>
1

$$$$
Molecule_1384
  Mrv2316 01072400032D          

 28 30  0  0  0  0            999 V2000
    0.7145   -0.3835    0.0000 O   0  0  0  0  0  0  0  0  0  0  0  0
    0.7145   -1.2085    0.0000 C   0  0  0  0  0  0  0  0  0  0  0  0
    1.4289   -1.6210    0.0000 C   0  0  0  0  0  0  0  0  0  0  0  0
    2.1434   -1.2085    0.0000 C   0  0  0  0  0  0  0  0  0  0  0  0
    2.1434   -0.3835    0.0000 O   0  0  0  0  0  0  0  0  0  0  0  0
    2.8579   -1.6210    0.0000 C   0  0  0  0  0  0  0  0  0  0  0  0
    3.5724   -1.2085    0.0000 C   0  0  0  0  0  0  0  0  0  0  0  0
    4.2868   -1.6210    0.0000 C   0  0  0  0  0  0  0  0  0  0  0  0
    5.0013   -1.2085    0.0000 C   0  0  0  0  0  0  0  0  0  0  0  0
    5.7158   -1.6210    0.0000 F   0  0  0  0  0  0  0  0  0  0  0  0
    5.0013   -0.3835    0.0000 C   0  0  0  0  0  0  0  0  0  0  0  0
    5.7158    0.0290    0.0000 F   0  0  0  0  0  0  0  0  0  0  0  0
    4.2868    0.0290    0.0000 C   0  0  0  0  0  0  0  0  0  0  0  0
    3.5724   -0.3835    0.0000 C   0  0  0  0  0  0  0  0  0  0  0  0
    2.8579    0.0290    0.0000 F   0  0  0  0  0  0  0  0  0  0  0  0
    0.0000   -1.6210    0.0000 N   0  0  0  0  0  0  0  0  0  0  0  0
   -0.7145   -1.2085    0.0000 C   0  0  0  0  0  0  0  0  0  0  0  0
   -1.4289   -1.6210    0.0000 C   0  0  0  0  0  0  0  0  0  0  0  0
   -2.2136   -1.3661    0.0000 N   0  0  0  0  0  0  0  0  0  0  0  0
   -2.6985   -2.0335    0.0000 N   0  0  0  0  0  0  0  0  0  0  0  0
   -2.2136   -2.7010    0.0000 C   0  0  0  0  0  0  0  0  0  0  0  0
   -2.4685   -3.4856    0.0000 C   0  0  0  0  0  0  0  0  0  0  0  0
   -2.7234   -4.2702    0.0000 F   0  0  0  0  0  0  0  0  0  0  0  0
   -3.2531   -3.2307    0.0000 F   0  0  0  0  0  0  0  0  0  0  0  0
   -1.6839   -3.7405    0.0000 F   0  0  0  0  0  0  0  0  0  0  0  0
   -1.4289   -2.4460    0.0000 N   0  0  0  0  0  0  0  0  0  0  0  0
   -0.7145   -2.8585    0.0000 C   0  0  0  0  0  0  0  0  0  0  0  0
    0.0000   -2.4460    0.0000 C   0  0  0  0  0  0  0  0  0  0  0  0
  1  2  2  0  0  0  0
  2  3  1  0  0  0  0
  3  4  1  0  0  0  0
  4  5  2  0  0  0  0
  4  6  1  0  0  0  0
  6  7  1  0  0  0  0
  8  7  2  0  0  0  0
  9  8  1  0  0  0  0
  9 10  1  0  0  0  0
 11  9  2  0  0  0  0
 11 12  1  0  0  0  0
 13 11  1  0  0  0  0
 14 13  2  0  0  0  0
  7 14  1  0  0  0  0
 14 15  1  0  0  0  0
  2 16  1  0  0  0  0
 17 16  1  0  0  0  0
 18 17  1  0  0  0  0
 18 19  2  0  0  0  0
 19 20  1  0  0  0  0
 20 21  2  0  0  0  0
 21 22  1  0  0  0  0
 22 23  1  0  0  0  0
 22 24  1  0  0  0  0
 22 25  1  0  0  0  0
 21 26  1  0  0  0  0
 26 18  1  0  0  0  0
 27 26  1  0  0  0  0
 28 27  1  0  0  0  0
 16 28  1  0  0  0  0
M  END
> <RowID>
1384

> <Original_SMILES>
O=C(CC(=O)CC1=CC(F)=C(F)C=C1F)N1CC2=NN=C(N2CC1)C(F)(F)F

> <Canonical_QSARr>
O=C(CC(=O)CC1=CC(F)=C(F)C=C1F)N1CC2=NN=C(N2CC1)C(F)(F)F

> <InChI_Code_QSARr>
InChI=1S/C16H12F6N4O2/c17-10-6-12(19)11(18)4-8(10)3-9(27)5-14(28)25-1-2-26-13(7-25)23-24-15(26)16(20,21)22/h4,6H,1-3,5,7H2

> <InChI Key_QSARr>
QAEDTLFWHIEVPK-UHFFFAOYSA-N

> <Salt_Solvent>


> <Salt_Solvent_ID>
0

> <Number of connected components>
1

$$$$
Molecule_1385
  Mrv2316 01072400032D          

 15 15  0  0  0  0            999 V2000
    2.1434   -5.5275    0.0000 C   0  0  0  0  0  0  0  0  0  0  0  0
    2.1434   -4.7025    0.0000 C   0  0  0  0  0  0  0  0  0  0  0  0
    1.4289   -4.2900    0.0000 C   0  0  0  0  0  0  0  0  0  0  0  0
    0.7145   -3.8775    0.0000 N   0  0  0  0  0  0  0  0  0  0  0  0
    2.8579   -4.2900    0.0000 C   0  0  0  0  0  0  0  0  0  0  0  0
    2.8579   -3.4650    0.0000 O   0  0  0  0  0  0  0  0  0  0  0  0
    3.5724   -4.7025    0.0000 O   0  0  0  0  0  0  0  0  0  0  0  0
    4.2868   -4.2900    0.0000 C   0  0  0  0  0  0  0  0  0  0  0  0
    5.0013   -4.7025    0.0000 C   0  0  0  0  0  0  0  0  0  0  0  0
    5.7158   -4.2900    0.0000 C   0  0  0  0  0  0  0  0  0  0  0  0
    6.4302   -4.7025    0.0000 C   0  0  0  0  0  0  0  0  0  0  0  0
    7.1447   -4.2900    0.0000 C   0  0  0  0  0  0  0  0  0  0  0  0
    7.1447   -3.4650    0.0000 C   0  0  0  0  0  0  0  0  0  0  0  0
    6.4302   -3.0525    0.0000 C   0  0  0  0  0  0  0  0  0  0  0  0
    5.7158   -3.4650    0.0000 C   0  0  0  0  0  0  0  0  0  0  0  0
  1  2  2  0  0  0  0
  2  3  1  0  0  0  0
  3  4  3  0  0  0  0
  2  5  1  0  0  0  0
  5  6  2  0  0  0  0
  5  7  1  0  0  0  0
  7  8  1  0  0  0  0
  8  9  1  0  0  0  0
  9 10  1  0  0  0  0
 11 10  1  0  0  0  0
 12 11  2  0  0  0  0
 13 12  1  0  0  0  0
 14 13  2  0  0  0  0
 15 14  1  0  0  0  0
 10 15  2  0  0  0  0
M  END
> <RowID>
1385

> <Original_SMILES>
C=C(C#N)C(=O)OCCC1C=CC=CC=1

> <Canonical_QSARr>
C=C(C#N)C(=O)OCCC1C=CC=CC=1

> <InChI_Code_QSARr>
InChI=1S/C12H11NO2/c1-10(9-13)12(14)15-8-7-11-5-3-2-4-6-11/h2-6H,1,7-8H2

> <InChI Key_QSARr>
LTYWEEUBKYARKZ-UHFFFAOYSA-N

> <Salt_Solvent>


> <Salt_Solvent_ID>
0

> <Number of connected components>
1

$$$$
Molecule_1386
  Mrv2316 01072400032D          

 14 14  0  0  0  0            999 V2000
    0.6124   -2.4750    0.0000 C   0  0  0  0  0  0  0  0  0  0  0  0
    1.3269   -2.0625    0.0000 C   0  0  0  0  0  0  0  0  0  0  0  0
    2.0413   -2.4750    0.0000 C   0  0  0  0  0  0  0  0  0  0  0  0
    1.3269   -1.2375    0.0000 C   0  0  0  0  0  0  0  0  0  0  0  0
    2.0413   -0.8250    0.0000 C   0  0  0  0  0  0  0  0  0  0  0  0
    2.0413    0.0000    0.0000 C   0  0  0  0  0  0  0  0  0  0  0  0
    1.3269    0.4125    0.0000 C   0  0  0  0  0  0  0  0  0  0  0  0
    1.3269    1.2375    0.0000 C   0  0  0  0  0  0  0  0  0  0  0  0
    0.6124    1.6500    0.0000 C   0  0  0  0  0  0  0  0  0  0  0  0
   -0.1021    1.2375    0.0000 C   0  0  0  0  0  0  0  0  0  0  0  0
    0.6124    2.4750    0.0000 C   0  0  0  0  0  0  0  0  0  0  0  0
   -0.1021    2.8875    0.0000 O   0  0  0  0  0  0  0  0  0  0  0  0
    0.6124    0.0000    0.0000 C   0  0  0  0  0  0  0  0  0  0  0  0
    0.6124   -0.8250    0.0000 C   0  0  0  0  0  0  0  0  0  0  0  0
  1  2  1  0  0  0  0
  2  3  1  0  0  0  0
  2  4  1  0  0  0  0
  5  4  2  0  0  0  0
  6  5  1  0  0  0  0
  7  6  2  0  0  0  0
  7  8  1  0  0  0  0
  8  9  1  0  0  0  0
  9 10  1  0  0  0  0
  9 11  1  0  0  0  0
 11 12  2  0  0  0  0
 13  7  1  0  0  0  0
 14 13  2  0  0  0  0
  4 14  1  0  0  0  0
M  END
> <RowID>
1386

> <Original_SMILES>
CC(C)C1=CC=C(CC(C)C=O)C=C1

> <Canonical_QSARr>
CC(C)C1=CC=C(CC(C)C=O)C=C1

> <InChI_Code_QSARr>
InChI=1S/C13H18O/c1-10(2)13-6-4-12(5-7-13)8-11(3)9-14/h4-7,9-11H,8H2,1-3H3

> <InChI Key_QSARr>
ZFNVDHOSLNRHNN-UHFFFAOYSA-N

> <Salt_Solvent>


> <Salt_Solvent_ID>
0

> <Number of connected components>
1

$$$$
Molecule_1387
  Mrv2316 01072400032D          

 19 19  0  0  0  0            999 V2000
   -5.0013    6.1875    0.0000 C   0  0  0  0  0  0  0  0  0  0  0  0
   -4.2868    5.7750    0.0000 C   0  0  0  0  0  0  0  0  0  0  0  0
   -4.2868    4.9500    0.0000 C   0  0  0  0  0  0  0  0  0  0  0  0
   -3.5723    4.5375    0.0000 C   0  0  0  0  0  0  0  0  0  0  0  0
   -2.8579    4.9500    0.0000 C   0  0  0  0  0  0  0  0  0  0  0  0
   -2.1434    4.5375    0.0000 S   0  0  0  0  0  0  0  0  0  0  0  0
   -1.4289    4.1250    0.0000 N   0  0  0  0  0  0  0  0  0  0  0  0
   -0.7145    4.5375    0.0000 C   0  0  0  0  0  0  0  0  0  0  0  0
    0.0000    4.1250    0.0000 C   0  0  0  0  0  0  0  0  0  0  0  0
    0.7145    4.5375    0.0000 C   0  0  0  0  0  0  0  0  0  0  0  0
    1.4290    4.1250    0.0000 C   0  0  0  0  0  0  0  0  0  0  0  0
    2.1434    4.5375    0.0000 C   0  0  0  0  0  0  0  0  0  0  0  0
    2.8579    4.1250    0.0000 C   0  0  0  0  0  0  0  0  0  0  0  0
    3.5724    4.5375    0.0000 O   0  0  0  0  0  0  0  0  0  0  0  0
    2.8579    3.3000    0.0000 O   0  0  0  0  0  0  0  0  0  0  0  0
   -2.5559    3.8230    0.0000 O   0  0  0  0  0  0  0  0  0  0  0  0
   -1.7309    5.2520    0.0000 O   0  0  0  0  0  0  0  0  0  0  0  0
   -2.8579    5.7750    0.0000 C   0  0  0  0  0  0  0  0  0  0  0  0
   -3.5723    6.1875    0.0000 C   0  0  0  0  0  0  0  0  0  0  0  0
  1  2  1  0  0  0  0
  3  2  2  0  0  0  0
  4  3  1  0  0  0  0
  5  4  2  0  0  0  0
  5  6  1  0  0  0  0
  6  7  1  0  0  0  0
  7  8  1  0  0  0  0
  8  9  1  0  0  0  0
  9 10  1  0  0  0  0
 10 11  1  0  0  0  0
 11 12  1  0  0  0  0
 12 13  1  0  0  0  0
 13 14  2  0  0  0  0
 13 15  1  0  0  0  0
  6 16  2  0  0  0  0
  6 17  2  0  0  0  0
 18  5  1  0  0  0  0
 19 18  2  0  0  0  0
  2 19  1  0  0  0  0
M  END
> <RowID>
1387

> <Original_SMILES>
CC1C=CC(=CC=1)S(=O)(=O)NCCCCCC(O)=O.OCCN(CCO)CCO

> <Canonical_QSARr>
CC1=CC=C(C=C1)S(=O)(=O)NCCCCCC(O)=O

> <InChI_Code_QSARr>
InChI=1S/C13H19NO4S/c1-11-6-8-12(9-7-11)19(17,18)14-10-4-2-3-5-13(15)16/h6-9,14H,2-5,10H2,1H3,(H,15,16)

> <InChI Key_QSARr>
GLKZGJGPYOFPKV-UHFFFAOYSA-N

> <Salt_Solvent>
OCCN(CCO)CCO

> <Salt_Solvent_ID>
3118

> <Number of connected components>
2

$$$$
Molecule_1388
  Mrv2316 01072400032D          

 24 26  0  0  0  0            999 V2000
   -2.6197    0.4125    0.0000 C   0  0  0  0  0  0  0  0  0  0  0  0
   -1.9053    0.0000    0.0000 N   0  3  0  0  0  0  0  0  0  0  0  0
   -1.1908   -0.4125    0.0000 C   0  0  0  0  0  0  0  0  0  0  0  0
   -1.1908   -1.2375    0.0000 C   0  0  0  0  0  0  0  0  0  0  0  0
   -0.4763   -1.6500    0.0000 C   0  0  0  0  0  0  0  0  0  0  0  0
    0.2382   -1.2375    0.0000 C   0  0  0  0  0  0  0  0  0  0  0  0
    0.2382   -0.4125    0.0000 C   0  0  0  0  0  0  0  0  0  0  0  0
    0.9526    0.0000    0.0000 C   0  0  0  0  0  0  0  0  0  0  0  0
    1.6671   -0.4125    0.0000 C   0  0  0  0  0  0  0  0  0  0  0  0
    1.6671   -1.2375    0.0000 C   0  0  0  0  0  0  0  0  0  0  0  0
    0.9526   -1.6500    0.0000 C   0  0  0  0  0  0  0  0  0  0  0  0
    2.3816   -0.0000    0.0000 O   0  0  0  0  0  0  0  0  0  0  0  0
    0.9526    0.8250    0.0000 N   0  0  0  0  0  0  0  0  0  0  0  0
    1.6671    1.2375    0.0000 N   0  0  0  0  0  0  0  0  0  0  0  0
    1.6671    2.0625    0.0000 C   0  0  0  0  0  0  0  0  0  0  0  0
    2.3816    2.4750    0.0000 C   0  0  0  0  0  0  0  0  0  0  0  0
    2.3816    3.3000    0.0000 C   0  0  0  0  0  0  0  0  0  0  0  0
    1.6671    3.7125    0.0000 C   0  0  0  0  0  0  0  0  0  0  0  0
    1.6671    4.5375    0.0000 N   0  0  0  0  0  0  0  0  0  0  0  0
    0.9526    3.3000    0.0000 C   0  0  0  0  0  0  0  0  0  0  0  0
    0.9526    2.4750    0.0000 C   0  0  0  0  0  0  0  0  0  0  0  0
   -0.4763   -0.0000    0.0000 C   0  0  0  0  0  0  0  0  0  0  0  0
   -2.3178   -0.7145    0.0000 C   0  0  0  0  0  0  0  0  0  0  0  0
   -1.4928    0.7145    0.0000 C   0  0  0  0  0  0  0  0  0  0  0  0
  1  2  1  0  0  0  0
  2  3  1  0  0  0  0
  4  3  2  0  0  0  0
  5  4  1  0  0  0  0
  6  5  2  0  0  0  0
  6  7  1  0  0  0  0
  7  8  1  0  0  0  0
  8  9  2  0  0  0  0
  9 10  1  0  0  0  0
 10 11  2  0  0  0  0
 11  6  1  0  0  0  0
  9 12  1  0  0  0  0
 13  8  1  4  0  0  0
 13 14  2  0  0  0  0
 14 15  1  0  0  0  0
 16 15  2  0  0  0  0
 17 16  1  0  0  0  0
 18 17  2  0  0  0  0
 18 19  1  0  0  0  0
 20 18  1  0  0  0  0
 21 20  2  0  0  0  0
 15 21  1  0  0  0  0
 22  7  2  0  0  0  0
  3 22  1  0  0  0  0
  2 23  1  0  0  0  0
  2 24  1  0  0  0  0
M  CHG  1   2   1
M  END
> <RowID>
1388

> <Original_SMILES>
[Cl-].C[N+](C)(C)C1C=C2C(N=NC3C=CC(N)=CC=3)=C(O)C=CC2=CC=1

> <Canonical_QSARr>
C[N+](C)(C)C1C=C2C(N=NC3C=CC(N)=CC=3)=C(O)C=CC2=CC=1

> <InChI_Code_QSARr>
InChI=1S/C19H20N4O/c1-23(2,3)16-10-4-13-5-11-18(24)19(17(13)12-16)22-21-15-8-6-14(20)7-9-15/h4-12H,1-3H3,(H2-,20,21,22,24)/p+1

> <InChI Key_QSARr>
KZDKDLDVQWZTRZ-UHFFFAOYSA-O

> <Salt_Solvent>
[Cl-]

> <Salt_Solvent_ID>
170

> <Number of connected components>
2

$$$$
Molecule_1389
  Mrv2316 01072400032D          

 17 17  0  0  0  0            999 V2000
    8.2510    4.5428    0.0000 C   0  0  0  0  0  0  0  0  0  0  0  0
    8.9655    4.1303    0.0000 C   0  0  0  0  0  0  0  0  0  0  0  0
    9.6800    4.5428    0.0000 C   0  0  0  0  0  0  0  0  0  0  0  0
   10.3945    4.1303    0.0000 C   0  0  0  0  0  0  0  0  0  0  0  0
   11.1089    4.5428    0.0000 C   0  0  0  0  0  0  0  0  0  0  0  0
   11.8234    4.1303    0.0000 C   0  0  0  0  0  0  0  0  0  0  0  0
   12.5379    4.5428    0.0000 C   0  0  0  0  0  0  0  0  0  0  0  0
   13.2523    4.1303    0.0000 C   0  0  0  0  0  0  0  0  0  0  0  0
   13.9668    4.5428    0.0000 C   0  0  0  0  0  0  0  0  0  0  0  0
   14.6813    4.1303    0.0000 C   0  0  0  0  0  0  0  0  0  0  0  0
   15.3958    4.5428    0.0000 C   0  0  0  0  0  0  0  0  0  0  0  0
   16.1102    4.1303    0.0000 C   0  0  0  0  0  0  0  0  0  0  0  0
   16.8247    4.5428    0.0000 C   0  0  0  0  0  0  0  0  0  0  0  0
   17.5392    4.1303    0.0000 C   0  0  0  0  0  0  0  0  0  0  0  0
   18.2536    4.5428    0.0000 C   0  0  0  0  0  0  0  0  0  0  0  0
   19.0786    4.5428    0.0000 C   0  0  0  0  0  0  0  0  0  0  0  0
   18.6661    5.2573    0.0000 O   0  0  0  0  0  0  0  0  0  0  0  0
  1  2  1  0  0  0  0
  2  3  1  0  0  0  0
  3  4  1  0  0  0  0
  4  5  1  0  0  0  0
  5  6  1  0  0  0  0
  6  7  1  0  0  0  0
  7  8  1  0  0  0  0
  8  9  1  0  0  0  0
  9 10  1  0  0  0  0
 10 11  1  0  0  0  0
 11 12  1  0  0  0  0
 12 13  1  0  0  0  0
 13 14  1  0  0  0  0
 14 15  1  0  0  0  0
 16 15  1  0  0  0  0
 17 16  1  0  0  0  0
 15 17  1  0  0  0  0
M  END
> <RowID>
1389

> <Original_SMILES>
CCCCCCCCCCCCCCC1CO1

> <Canonical_QSARr>
CCCCCCCCCCCCCCC1CO1

> <InChI_Code_QSARr>
InChI=1S/C16H32O/c1-2-3-4-5-6-7-8-9-10-11-12-13-14-16-15-17-16/h16H,2-15H2,1H3

> <InChI Key_QSARr>
DSZTYVZOIUIIGA-UHFFFAOYSA-N

> <Salt_Solvent>


> <Salt_Solvent_ID>
0

> <Number of connected components>
1

$$$$
Molecule_1390
  Mrv2316 01072400032D          

 14 14  0  0  0  0            999 V2000
   -2.0924    1.3259    0.0000 C   0  0  0  0  0  0  0  0  0  0  0  0
   -1.3779    0.9134    0.0000 O   0  0  0  0  0  0  0  0  0  0  0  0
   -0.6634    1.3259    0.0000 C   0  0  0  0  0  0  0  0  0  0  0  0
   -0.6634    2.1509    0.0000 O   0  0  0  0  0  0  0  0  0  0  0  0
    0.0510    0.9134    0.0000 C   0  0  0  0  0  0  0  0  0  0  0  0
    0.0510    0.0884    0.0000 C   0  0  0  0  0  0  0  0  0  0  0  0
    0.7655   -0.3241    0.0000 C   0  0  0  0  0  0  0  0  0  0  0  0
    1.4800    0.0884    0.0000 C   0  0  0  0  0  0  0  0  0  0  0  0
    1.4800    0.9134    0.0000 C   0  0  0  0  0  0  0  0  0  0  0  0
    0.7655    1.3259    0.0000 C   0  0  0  0  0  0  0  0  0  0  0  0
    0.7655    2.1509    0.0000 C   0  0  0  0  0  0  0  0  0  0  0  0
    0.0510    2.5634    0.0000 O   0  0  0  0  0  0  0  0  0  0  0  0
    1.4800    2.5634    0.0000 O   0  0  0  0  0  0  0  0  0  0  0  0
    1.4800    3.3884    0.0000 C   0  0  0  0  0  0  0  0  0  0  0  0
  1  2  1  0  0  0  0
  2  3  1  0  0  0  0
  3  4  2  0  0  0  0
  3  5  1  0  0  0  0
  6  5  1  0  0  0  0
  7  6  2  0  0  0  0
  8  7  1  0  0  0  0
  9  8  2  0  0  0  0
 10  9  1  0  0  0  0
  5 10  2  0  0  0  0
 10 11  1  0  0  0  0
 11 12  2  0  0  0  0
 11 13  1  0  0  0  0
 13 14  1  0  0  0  0
M  END
> <RowID>
1390

> <Original_SMILES>
COC(=O)C1C=CC=CC=1C(=O)OC

> <Canonical_QSARr>
COC(=O)C1C=CC=CC=1C(=O)OC

> <InChI_Code_QSARr>
InChI=1S/C10H10O4/c1-13-9(11)7-5-3-4-6-8(7)10(12)14-2/h3-6H,1-2H3

> <InChI Key_QSARr>
NIQCNGHVCWTJSM-UHFFFAOYSA-N

> <Salt_Solvent>


> <Salt_Solvent_ID>
0

> <Number of connected components>
1

$$$$
Molecule_1391
  Mrv2316 01072400032D          

 40 48  0  0  0  0            999 V2000
    0.0112   -2.0494    0.0000 N   0  0  0  0  0  0  0  0  0  0  0  0
   -0.7243   -1.6459    0.0000 C   0  0  0  0  0  0  0  0  0  0  0  0
   -1.4819   -2.0624    0.0000 C   0  0  0  0  0  0  0  0  0  0  0  0
   -2.0703   -1.4841    0.0000 C   0  0  0  0  0  0  0  0  0  0  0  0
   -1.6690   -0.7465    0.0000 C   0  0  0  0  0  0  0  0  0  0  0  0
   -0.8480   -0.8857    0.0000 N   0  0  0  0  0  0  0  0  0  0  0  0
   -2.0558   -0.0472    0.0000 N   0  0  0  0  0  0  0  0  0  0  0  0
   -1.6818    0.7174    0.0000 C   0  0  0  0  0  0  0  0  0  0  0  0
   -2.0393    1.4169    0.0000 C   0  0  0  0  0  0  0  0  0  0  0  0
   -1.4610    2.0053    0.0000 C   0  0  0  0  0  0  0  0  0  0  0  0
   -0.7239    1.6627    0.0000 C   0  0  0  0  0  0  0  0  0  0  0  0
   -0.8926    0.8706    0.0000 N   0  0  0  0  0  0  0  0  0  0  0  0
    0.0047    2.0496    0.0000 N   0  0  0  0  0  0  0  0  0  0  0  0
    0.7107    1.6752    0.0000 C   0  0  0  0  0  0  0  0  0  0  0  0
    1.4686    2.0624    0.0000 C   0  0  0  0  0  0  0  0  0  0  0  0
    1.6752    2.8611    0.0000 C   0  0  0  0  0  0  0  0  0  0  0  0
    2.4702    3.0816    0.0000 C   0  0  0  0  0  0  0  0  0  0  0  0
    3.0586    2.5033    0.0000 C   0  0  0  0  0  0  0  0  0  0  0  0
    2.8520    1.7046    0.0000 C   0  0  0  0  0  0  0  0  0  0  0  0
    2.0570    1.4841    0.0000 C   0  0  0  0  0  0  0  0  0  0  0  0
    1.6265    0.7462    0.0000 C   0  0  0  0  0  0  0  0  0  0  0  0
    0.8643    0.8567    0.0000 N   0  0  0  0  0  0  0  0  0  0  0  0
    2.0427    0.0179    0.0000 N   0  0  0  0  0  0  0  0  0  0  0  0
    1.6683   -0.6881    0.0000 C   0  0  0  0  0  0  0  0  0  0  0  0
    2.0558   -1.4752    0.0000 C   0  0  0  0  0  0  0  0  0  0  0  0
    1.4776   -2.0637    0.0000 C   0  0  0  0  0  0  0  0  0  0  0  0
    0.7106   -1.6627    0.0000 C   0  0  0  0  0  0  0  0  0  0  0  0
    0.8501   -0.8709    0.0000 N   0  0  0  0  0  0  0  0  0  0  0  0
    1.6981   -2.8587    0.0000 C   0  0  0  0  0  0  0  0  0  0  0  0
    2.4969   -3.0652    0.0000 C   0  0  0  0  0  0  0  0  0  0  0  0
    3.0751   -2.4767    0.0000 C   0  0  0  0  0  0  0  0  0  0  0  0
    2.8545   -1.6817    0.0000 C   0  0  0  0  0  0  0  0  0  0  0  0
   -1.6815    2.8003    0.0000 C   0  0  0  0  0  0  0  0  0  0  0  0
   -2.4802    3.0069    0.0000 C   0  0  0  0  0  0  0  0  0  0  0  0
   -3.0585    2.4185    0.0000 C   0  0  0  0  0  0  0  0  0  0  0  0
   -2.8380    1.6235    0.0000 C   0  0  0  0  0  0  0  0  0  0  0  0
   -2.8653   -1.7046    0.0000 C   0  0  0  0  0  0  0  0  0  0  0  0
   -3.0719   -2.5033    0.0000 C   0  0  0  0  0  0  0  0  0  0  0  0
   -2.4835   -3.0816    0.0000 C   0  0  0  0  0  0  0  0  0  0  0  0
   -1.6885   -2.8611    0.0000 C   0  0  0  0  0  0  0  0  0  0  0  0
  2  1  1  0  0  0  0
  2  3  1  0  0  0  0
  4  3  2  0  0  0  0
  4  5  1  0  0  0  0
  5  6  1  0  0  0  0
  6  2  2  0  0  0  0
  7  5  2  0  0  0  0
  8  7  1  0  0  0  0
  8  9  1  0  0  0  0
 10  9  2  0  0  0  0
 10 11  1  0  0  0  0
 11 12  1  0  0  0  0
 12  8  2  0  0  0  0
 13 11  2  0  0  0  0
 14 13  1  0  0  0  0
 14 15  2  0  0  0  0
 16 15  1  0  0  0  0
 17 16  2  0  0  0  0
 18 17  1  0  0  0  0
 19 18  2  0  0  0  0
 20 19  1  0  0  0  0
 15 20  1  0  0  0  0
 20 21  2  0  0  0  0
 21 22  1  0  0  0  0
 22 14  1  0  0  0  0
 23 21  1  0  0  0  0
 24 23  2  0  0  0  0
 24 25  1  0  0  0  0
 26 25  2  0  0  0  0
 26 27  1  0  0  0  0
  1 27  1  0  0  0  0
 27 28  2  0  0  0  0
 28 24  1  0  0  0  0
 29 26  1  0  0  0  0
 30 29  2  0  0  0  0
 31 30  1  0  0  0  0
 32 31  2  0  0  0  0
 25 32  1  0  0  0  0
 33 10  1  0  0  0  0
 34 33  2  0  0  0  0
 35 34  1  0  0  0  0
 36 35  2  0  0  0  0
  9 36  1  0  0  0  0
 37  4  1  0  0  0  0
 38 37  2  0  0  0  0
 39 38  1  0  0  0  0
 40 39  2  0  0  0  0
  3 40  1  0  0  0  0
M  END
> <RowID>
1391

> <Original_SMILES>
[Zn+2].C1=CC=CC2=C3[N-]C(N=C4N=C(N=C5N=C([N-]C6=NC(=N3)C3=CC=CC=C36)C3=CC=CC=C35)C3=CC=CC=C34)=C21

> <Canonical_QSARr>
C1=CC=CC2C3N=C4N=C(NC5=NC(=NC6NC(N=C(N=3)C=21)=C1C=CC=CC1=6)C1C=CC=CC=15)C1C=CC=CC=14

> <InChI_Code_QSARr>
InChI=1S/C32H18N8/c1-2-10-18-17(9-1)25-33-26(18)38-28-21-13-5-6-14-22(21)30(35-28)40-32-24-16-8-7-15-23(24)31(36-32)39-29-20-12-4-3-11-19(20)27(34-29)37-25/h1-16H,(H2,33,34,35,36,37,38,39,40)

> <InChI Key_QSARr>
IEQIEDJGQAUEQZ-UHFFFAOYSA-N

> <Salt_Solvent>
[Zn+2]

> <Salt_Solvent_ID>
300

> <Number of connected components>
2

$$$$
Molecule_1392
  Mrv2316 01072400032D          

 14 15  0  0  0  0            999 V2000
   -0.3984   -2.1500    0.0000 N   0  0  0  0  0  0  0  0  0  0  0  0
   -0.1435   -1.3654    0.0000 C   0  0  0  0  0  0  0  0  0  0  0  0
    0.6411   -1.1104    0.0000 C   0  0  0  0  0  0  0  0  0  0  0  0
    0.6411   -0.2854    0.0000 N   0  0  0  0  0  0  0  0  0  0  0  0
    1.3556    0.1271    0.0000 C   0  0  0  0  0  0  0  0  0  0  0  0
    2.0701   -0.2854    0.0000 C   0  0  0  0  0  0  0  0  0  0  0  0
    2.0701   -1.1104    0.0000 C   0  0  0  0  0  0  0  0  0  0  0  0
    1.3556   -1.5229    0.0000 C   0  0  0  0  0  0  0  0  0  0  0  0
   -0.1435   -0.0305    0.0000 N   0  0  0  0  0  0  0  0  0  0  0  0
   -0.6284   -0.6979    0.0000 C   0  0  0  0  0  0  0  0  0  0  0  0
   -1.4534   -0.6979    0.0000 O   0  0  0  0  0  0  0  0  0  0  0  0
   -1.8659   -1.4124    0.0000 C   0  0  0  0  0  0  0  0  0  0  0  0
   -2.6909   -1.4124    0.0000 C   0  0  0  0  0  0  0  0  0  0  0  0
   -3.1034   -2.1269    0.0000 O   0  0  0  0  0  0  0  0  0  0  0  0
  1  2  1  0  0  0  0
  3  2  2  0  0  0  0
  3  4  1  0  0  0  0
  4  5  1  0  0  0  0
  5  6  2  0  0  0  0
  6  7  1  0  0  0  0
  7  8  2  0  0  0  0
  8  3  1  0  0  0  0
  9  4  1  0  0  0  0
 10  9  2  0  0  0  0
  2 10  1  0  0  0  0
 10 11  1  0  0  0  0
 11 12  1  0  0  0  0
 12 13  1  0  0  0  0
 13 14  1  0  0  0  0
M  END
> <RowID>
1392

> <Original_SMILES>
Cl.NC1C(=NN2C=CC=CC2=1)OCCO

> <Canonical_QSARr>
NC1C(=NN2C=CC=CC2=1)OCCO

> <InChI_Code_QSARr>
InChI=1S/C9H11N3O2/c10-8-7-3-1-2-4-12(7)11-9(8)14-6-5-13/h1-4,13H,5-6,10H2

> <InChI Key_QSARr>
VBZVYRJXFGQJTI-UHFFFAOYSA-N

> <Salt_Solvent>
Cl

> <Salt_Solvent_ID>
170

> <Number of connected components>
2

$$$$
Molecule_1393
  Mrv2316 01072400032D          

  8  7  0  0  0  0            999 V2000
    2.4750   -0.0000    0.0000 O   0  0  0  0  0  0  0  0  0  0  0  0
    2.0625    0.7145    0.0000 C   0  0  0  0  0  0  0  0  0  0  0  0
    2.4750    1.4289    0.0000 O   0  0  0  0  0  0  0  0  0  0  0  0
    1.2375    0.7145    0.0000 C   0  0  0  0  0  0  0  0  0  0  0  0
    0.8250    1.4289    0.0000 C   0  0  0  0  0  0  0  0  0  0  0  0
    0.0000    1.4289    0.0000 C   0  0  0  0  0  0  0  0  0  0  0  0
    0.8250   -0.0000    0.0000 C   0  0  0  0  0  0  0  0  0  0  0  0
    0.0000   -0.0000    0.0000 C   0  0  0  0  0  0  0  0  0  0  0  0
  1  2  1  0  0  0  0
  2  3  2  0  0  0  0
  2  4  1  0  0  0  0
  4  5  1  0  0  0  0
  5  6  1  0  0  0  0
  4  7  1  0  0  0  0
  7  8  1  0  0  0  0
M  END
> <RowID>
1393

> <Original_SMILES>
[Mg+2].CCC(CC)C([O-])=O.CCC(CC)C([O-])=O

> <Canonical_QSARr>
CCC(CC)C(O)=O

> <InChI_Code_QSARr>
InChI=1S/C6H12O2/c1-3-5(4-2)6(7)8/h5H,3-4H2,1-2H3,(H,7,8)

> <InChI Key_QSARr>
OXQGTIUCKGYOAA-UHFFFAOYSA-N

> <Salt_Solvent>
[Mg+2]

> <Salt_Solvent_ID>
120

> <Number of connected components>
3

$$$$
Molecule_1394
  Mrv2316 01072400032D          

 14 15  0  0  0  0            999 V2000
   -0.2041   -1.2375    0.0000 C   0  0  0  0  0  0  0  0  0  0  0  0
    0.5103   -1.6500    0.0000 C   0  0  0  0  0  0  0  0  0  0  0  0
    0.5103   -2.4750    0.0000 C   0  0  0  0  0  0  0  0  0  0  0  0
    0.0978   -3.1895    0.0000 C   0  0  0  0  0  0  0  0  0  0  0  0
    0.9228   -3.1895    0.0000 C   0  0  0  0  0  0  0  0  0  0  0  0
    1.2248   -1.2375    0.0000 C   0  0  0  0  0  0  0  0  0  0  0  0
    1.9393   -1.6500    0.0000 O   0  0  0  0  0  0  0  0  0  0  0  0
    1.2248   -0.4125    0.0000 C   0  0  0  0  0  0  0  0  0  0  0  0
    1.9393   -0.0000    0.0000 C   0  0  0  0  0  0  0  0  0  0  0  0
    1.9393    0.8250    0.0000 C   0  0  0  0  0  0  0  0  0  0  0  0
    1.2248    1.2375    0.0000 C   0  0  0  0  0  0  0  0  0  0  0  0
    1.2248    2.0625    0.0000 Cl  0  0  0  0  0  0  0  0  0  0  0  0
    0.5103    0.8250    0.0000 C   0  0  0  0  0  0  0  0  0  0  0  0
    0.5103   -0.0000    0.0000 C   0  0  0  0  0  0  0  0  0  0  0  0
  1  2  1  0  0  0  0
  2  3  1  0  0  0  0
  4  3  1  0  0  0  0
  5  4  1  0  0  0  0
  3  5  1  0  0  0  0
  2  6  1  0  0  0  0
  6  7  2  0  0  0  0
  6  8  1  0  0  0  0
  9  8  2  0  0  0  0
 10  9  1  0  0  0  0
 11 10  2  0  0  0  0
 11 12  1  0  0  0  0
 13 11  1  0  0  0  0
 14 13  2  0  0  0  0
  8 14  1  0  0  0  0
M  END
> <RowID>
1394

> <Original_SMILES>
CC(C1CC1)C(=O)C1=CC=C(Cl)C=C1

> <Canonical_QSARr>
CC(C1CC1)C(=O)C1=CC=C(Cl)C=C1

> <InChI_Code_QSARr>
InChI=1S/C12H13ClO/c1-8(9-2-3-9)12(14)10-4-6-11(13)7-5-10/h4-9H,2-3H2,1H3

> <InChI Key_QSARr>
LRWCURGZPQWMRG-UHFFFAOYSA-N

> <Salt_Solvent>


> <Salt_Solvent_ID>
0

> <Number of connected components>
1

$$$$
Molecule_1395
  Mrv2316 01072400032D          

  6  5  0  0  0  0            999 V2000
    0.8250    1.4289    0.0000 O   0  0  0  0  0  0  0  0  0  0  0  0
    1.2375    0.7145    0.0000 C   0  0  0  0  0  0  0  0  0  0  0  0
    2.0625    0.7145    0.0000 O   0  0  0  0  0  0  0  0  0  0  0  0
    0.8250   -0.0000    0.0000 C   0  0  0  0  0  0  0  0  0  0  0  0
    1.2375   -0.7145    0.0000 O   0  0  0  0  0  0  0  0  0  0  0  0
    0.0000   -0.0000    0.0000 O   0  0  0  0  0  0  0  0  0  0  0  0
  1  2  1  0  0  0  0
  2  3  2  0  0  0  0
  2  4  1  0  0  0  0
  4  5  2  0  0  0  0
  4  6  1  0  0  0  0
M  END
> <RowID>
1395

> <Original_SMILES>
[K+].[O-]C(=O)C(O)=O.OC(=O)C(O)=O

> <Canonical_QSARr>
OC(=O)C(O)=O

> <InChI_Code_QSARr>
InChI=1S/C2H2O4/c3-1(4)2(5)6/h(H,3,4)(H,5,6)

> <InChI Key_QSARr>
MUBZPKHOEPUJKR-UHFFFAOYSA-N

> <Salt_Solvent>
OC(C(=O)O)=O.[K+]

> <Salt_Solvent_ID>
1148

> <Number of connected components>
3

$$$$
Molecule_1396
  Mrv2316 01072400032D          

  7  6  0  0  0  0            999 V2000
    1.7605    1.8414    0.0000 O   0  0  0  0  0  0  0  0  0  0  0  0
    2.4750    1.4289    0.0000 C   0  0  0  0  0  0  0  0  0  0  0  0
    3.1895    1.8414    0.0000 C   0  0  0  0  0  0  0  0  0  0  0  0
    3.9039    1.4289    0.0000 O   0  0  0  0  0  0  0  0  0  0  0  0
    4.6184    1.8414    0.0000 C   0  0  0  0  0  0  0  0  0  0  0  0
    5.3329    1.4289    0.0000 C   0  0  0  0  0  0  0  0  0  0  0  0
    6.0474    1.8414    0.0000 Cl  0  0  0  0  0  0  0  0  0  0  0  0
  1  2  1  0  0  0  0
  2  3  1  0  0  0  0
  3  4  1  0  0  0  0
  4  5  1  0  0  0  0
  5  6  1  0  0  0  0
  6  7  1  0  0  0  0
M  END
> <RowID>
1396

> <Original_SMILES>
OCCOCCCl

> <Canonical_QSARr>
OCCOCCCl

> <InChI_Code_QSARr>
InChI=1S/C4H9ClO2/c5-1-3-7-4-2-6/h6H,1-4H2

> <InChI Key_QSARr>
LECMBPWEOVZHKN-UHFFFAOYSA-N

> <Salt_Solvent>


> <Salt_Solvent_ID>
0

> <Number of connected components>
1

$$$$
Molecule_1397
  Mrv2316 01072400032D          

 21 23  0  0  0  0            999 V2000
    1.2273   -3.9085    0.0000 O   0  0  0  0  0  0  0  0  0  0  0  0
    0.6752   -3.2954    0.0000 C   0  0  0  0  0  0  0  0  0  0  0  0
   -0.1317   -3.4669    0.0000 O   0  0  0  0  0  0  0  0  0  0  0  0
    0.9302   -2.5108    0.0000 C   0  0  0  0  0  0  0  0  0  0  0  0
    0.3781   -1.8977    0.0000 O   0  0  0  0  0  0  0  0  0  0  0  0
    0.6331   -1.1130    0.0000 C   0  0  0  0  0  0  0  0  0  0  0  0
    1.4177   -0.8581    0.0000 C   0  0  0  0  0  0  0  0  0  0  0  0
    1.4177   -0.0331    0.0000 C   0  0  0  0  0  0  0  0  0  0  0  0
    2.1322    0.3794    0.0000 C   0  0  0  0  0  0  0  0  0  0  0  0
    2.8466   -0.0331    0.0000 C   0  0  0  0  0  0  0  0  0  0  0  0
    2.8466   -0.8581    0.0000 C   0  0  0  0  0  0  0  0  0  0  0  0
    2.1322   -1.2706    0.0000 C   0  0  0  0  0  0  0  0  0  0  0  0
    0.6331    0.2218    0.0000 N   0  0  0  0  0  0  0  0  0  0  0  0
    0.3781    1.0065    0.0000 C   0  0  0  0  0  0  0  0  0  0  0  0
   -0.4288    1.1780    0.0000 C   0  0  0  0  0  0  0  0  0  0  0  0
   -0.6838    1.9626    0.0000 C   0  0  0  0  0  0  0  0  0  0  0  0
   -1.4907    2.1341    0.0000 C   0  0  0  0  0  0  0  0  0  0  0  0
   -2.0428    1.5210    0.0000 C   0  0  0  0  0  0  0  0  0  0  0  0
   -1.7878    0.7364    0.0000 C   0  0  0  0  0  0  0  0  0  0  0  0
   -0.9809    0.5649    0.0000 C   0  0  0  0  0  0  0  0  0  0  0  0
    0.1482   -0.4456    0.0000 N   0  0  0  0  0  0  0  0  0  0  0  0
  1  2  1  0  0  0  0
  2  3  2  0  0  0  0
  2  4  1  0  0  0  0
  4  5  1  0  0  0  0
  5  6  1  0  0  0  0
  7  6  1  0  0  0  0
  7  8  2  0  0  0  0
  8  9  1  0  0  0  0
  9 10  2  0  0  0  0
 10 11  1  0  0  0  0
 11 12  2  0  0  0  0
 12  7  1  0  0  0  0
 13  8  1  0  0  0  0
 13 14  1  0  0  0  0
 14 15  1  0  0  0  0
 16 15  2  0  0  0  0
 17 16  1  0  0  0  0
 18 17  2  0  0  0  0
 19 18  1  0  0  0  0
 20 19  2  0  0  0  0
 15 20  1  0  0  0  0
 21 13  1  0  0  0  0
  6 21  2  0  0  0  0
M  END
> <RowID>
1397

> <Original_SMILES>
[Na+].[O-]C(=O)COC1=NN(CC2C=CC=CC=2)C2C=CC=CC=21

> <Canonical_QSARr>
OC(=O)COC1=NN(CC2C=CC=CC=2)C2C=CC=CC=21

> <InChI_Code_QSARr>
InChI=1S/C16H14N2O3/c19-15(20)11-21-16-13-8-4-5-9-14(13)18(17-16)10-12-6-2-1-3-7-12/h1-9H,10-11H2,(H,19,20)

> <InChI Key_QSARr>
BYFMCKSPFYVMOU-UHFFFAOYSA-N

> <Salt_Solvent>
[Na+]

> <Salt_Solvent_ID>
110

> <Number of connected components>
2

$$$$
Molecule_1398
  Mrv2316 01072400032D          

 10 10  0  0  0  0            999 V2000
    1.1393    3.5893    0.0000 C   0  0  0  0  0  0  0  0  0  0  0  0
    0.4249    3.1768    0.0000 O   0  0  0  0  0  0  0  0  0  0  0  0
    0.4249    2.3518    0.0000 C   0  0  0  0  0  0  0  0  0  0  0  0
    1.1393    1.9393    0.0000 O   0  0  0  0  0  0  0  0  0  0  0  0
   -0.2896    1.9393    0.0000 C   0  0  0  0  0  0  0  0  0  0  0  0
   -0.2896    1.1143    0.0000 C   0  0  0  0  0  0  0  0  0  0  0  0
   -0.9570    0.6294    0.0000 C   0  0  0  0  0  0  0  0  0  0  0  0
   -0.7021   -0.1553    0.0000 C   0  0  0  0  0  0  0  0  0  0  0  0
    0.1229   -0.1553    0.0000 C   0  0  0  0  0  0  0  0  0  0  0  0
    0.3778    0.6294    0.0000 C   0  0  0  0  0  0  0  0  0  0  0  0
  1  2  1  0  0  0  0
  2  3  1  0  0  0  0
  3  4  2  0  0  0  0
  3  5  1  0  0  0  0
  5  6  2  0  0  0  0
  7  6  1  0  0  0  0
  8  7  1  0  0  0  0
  9  8  1  0  0  0  0
 10  9  1  0  0  0  0
  6 10  1  0  0  0  0
M  END
> <RowID>
1398

> <Original_SMILES>
COC(=O)C=C1CCCC1

> <Canonical_QSARr>
COC(=O)C=C1CCCC1

> <InChI_Code_QSARr>
InChI=1S/C8H12O2/c1-10-8(9)6-7-4-2-3-5-7/h6H,2-5H2,1H3

> <InChI Key_QSARr>
ZDBCSZOFHPULAS-UHFFFAOYSA-N

> <Salt_Solvent>


> <Salt_Solvent_ID>
0

> <Number of connected components>
1

$$$$
Molecule_1399
  Mrv2316 01072400032D          

 12 13  0  0  0  0            999 V2000
   -0.7993   -5.0715    0.0000 N   0  0  0  0  0  0  0  0  0  0  0  0
   -0.3144   -4.4041    0.0000 C   0  0  0  0  0  0  0  0  0  0  0  0
    0.5106   -4.4041    0.0000 O   0  0  0  0  0  0  0  0  0  0  0  0
    0.7655   -3.6195    0.0000 N   0  0  0  0  0  0  0  0  0  0  0  0
    0.0981   -3.1345    0.0000 N   0  3  0  0  0  0  0  0  0  0  0  0
    0.0981   -2.3095    0.0000 N   0  0  0  0  0  0  0  0  0  0  0  0
    0.8126   -1.8970    0.0000 C   0  0  0  0  0  0  0  0  0  0  0  0
    0.8126   -1.0720    0.0000 C   0  0  0  0  0  0  0  0  0  0  0  0
    0.0981   -0.6595    0.0000 O   0  0  0  0  0  0  0  0  0  0  0  0
   -0.6164   -1.0720    0.0000 C   0  0  0  0  0  0  0  0  0  0  0  0
   -0.6164   -1.8970    0.0000 C   0  0  0  0  0  0  0  0  0  0  0  0
   -0.5694   -3.6195    0.0000 C   0  0  0  0  0  0  0  0  0  0  0  0
  1  2  1  0  0  0  0
  3  2  1  0  0  0  0
  4  3  1  0  0  0  0
  5  4  2  0  0  0  0
  5  6  1  0  0  0  0
  7  6  1  0  0  0  0
  8  7  1  0  0  0  0
  9  8  1  0  0  0  0
 10  9  1  0  0  0  0
 11 10  1  0  0  0  0
  6 11  1  0  0  0  0
 12  5  1  0  0  0  0
  2 12  2  0  0  0  0
M  CHG  1   5   1
M  END
> <RowID>
1399

> <Original_SMILES>
[Cl-].NC1=C[N+](=NO1)N1CCOCC1

> <Canonical_QSARr>
NC1=C[N+](=NO1)N1CCOCC1

> <InChI_Code_QSARr>
InChI=1S/C6H11N4O2/c7-6-5-10(8-12-6)9-1-3-11-4-2-9/h5H,1-4,7H2/q+1

> <InChI Key_QSARr>
XZYRDNUZENBYFI-UHFFFAOYSA-N

> <Salt_Solvent>
[Cl-]

> <Salt_Solvent_ID>
170

> <Number of connected components>
2

$$$$
Molecule_1400
  Mrv2316 01072400032D          

 11 12  0  0  0  0            999 V2000
   -1.3099   -0.6674    0.0000 N   0  0  0  0  0  0  0  0  0  0  0  0
   -0.4849   -0.6674    0.0000 C   0  0  0  0  0  0  0  0  0  0  0  0
    0.0000   -1.3349    0.0000 C   0  0  0  0  0  0  0  0  0  0  0  0
   -0.2549   -2.1195    0.0000 O   0  0  0  0  0  0  0  0  0  0  0  0
    0.7846   -1.0799    0.0000 N   0  0  0  0  0  0  0  0  0  0  0  0
    0.7846   -0.2549    0.0000 N   0  0  0  0  0  0  0  0  0  0  0  0
    1.5692    0.0000    0.0000 C   0  0  0  0  0  0  0  0  0  0  0  0
    2.0542   -0.6674    0.0000 C   0  0  0  0  0  0  0  0  0  0  0  0
    1.5692   -1.3349    0.0000 C   0  0  0  0  0  0  0  0  0  0  0  0
    0.0000    0.0000    0.0000 C   0  0  0  0  0  0  0  0  0  0  0  0
   -0.2549    0.7846    0.0000 N   0  0  0  0  0  0  0  0  0  0  0  0
  1  2  2  0  0  0  0
  3  2  1  0  0  0  0
  3  4  2  0  0  0  0
  5  3  1  0  0  0  0
  5  6  1  0  0  0  0
  6  7  1  0  0  0  0
  7  8  1  0  0  0  0
  8  9  1  0  0  0  0
  9  5  1  0  0  0  0
 10  6  1  0  0  0  0
  2 10  1  0  0  0  0
 10 11  1  0  0  0  0
M  END
> <RowID>
1400

> <Original_SMILES>
CS(O)(=O)=O.CS(O)(=O)=O.NC1C(=O)N2CCCN2C=1N

> <Canonical_QSARr>
NC1C(=N)C(=O)N2CCCN21

> <InChI_Code_QSARr>
InChI=1S/C6H10N4O/c7-4-5(8)9-2-1-3-10(9)6(4)11/h5,7H,1-3,8H2

> <InChI Key_QSARr>
BNAQKCLPJYBAHJ-UHFFFAOYSA-N

> <Salt_Solvent>
CS(=O)(=O)O

> <Salt_Solvent_ID>
2032

> <Number of connected components>
3

$$$$
Molecule_1401
  Mrv2316 01072400032D          

 38 37  0  0  0  0            999 V2000
   19.0856   11.8440    0.0000 C   0  0  0  0  0  0  0  0  0  0  0  0
   19.8000   11.4315    0.0000 C   0  0  0  0  0  0  0  0  0  0  0  0
   19.8000   10.6065    0.0000 C   0  0  0  0  0  0  0  0  0  0  0  0
   20.5145   11.8440    0.0000 C   0  0  0  0  0  0  0  0  0  0  0  0
   21.2290   11.4315    0.0000 C   0  0  0  0  0  0  0  0  0  0  0  0
   21.9434   11.8440    0.0000 C   0  0  0  0  0  0  0  0  0  0  0  0
   22.6579   11.4315    0.0000 C   0  0  0  0  0  0  0  0  0  0  0  0
   23.3724   11.8440    0.0000 C   0  0  0  0  0  0  0  0  0  0  0  0
   24.0869   11.4315    0.0000 C   0  0  0  0  0  0  0  0  0  0  0  0
   24.8013   11.8440    0.0000 C   0  0  0  0  0  0  0  0  0  0  0  0
   25.5158   11.4315    0.0000 C   0  0  0  0  0  0  0  0  0  0  0  0
   26.2303   11.8440    0.0000 C   0  0  0  0  0  0  0  0  0  0  0  0
   26.9447   11.4315    0.0000 C   0  0  0  0  0  0  0  0  0  0  0  0
   27.6592   11.8440    0.0000 C   0  0  0  0  0  0  0  0  0  0  0  0
   28.3737   11.4315    0.0000 C   0  0  0  0  0  0  0  0  0  0  0  0
   29.0882   11.8440    0.0000 C   0  0  0  0  0  0  0  0  0  0  0  0
   29.8026   11.4315    0.0000 C   0  0  0  0  0  0  0  0  0  0  0  0
   30.5171   11.8440    0.0000 C   0  0  0  0  0  0  0  0  0  0  0  0
   31.2316   11.4315    0.0000 O   0  0  0  0  0  0  0  0  0  0  0  0
   31.9460   11.8440    0.0000 C   0  0  0  0  0  0  0  0  0  0  0  0
   31.9460   12.6690    0.0000 O   0  0  0  0  0  0  0  0  0  0  0  0
   32.6605   11.4315    0.0000 C   0  0  0  0  0  0  0  0  0  0  0  0
   33.3750   11.8440    0.0000 C   0  0  0  0  0  0  0  0  0  0  0  0
   34.0895   11.4315    0.0000 C   0  0  0  0  0  0  0  0  0  0  0  0
   34.8039   11.8440    0.0000 C   0  0  0  0  0  0  0  0  0  0  0  0
   35.5184   11.4315    0.0000 C   0  0  0  0  0  0  0  0  0  0  0  0
   36.2329   11.8440    0.0000 C   0  0  0  0  0  0  0  0  0  0  0  0
   36.9473   11.4315    0.0000 C   0  0  0  0  0  0  0  0  0  0  0  0
   37.6618   11.8440    0.0000 C   0  0  0  0  0  0  0  0  0  0  0  0
   38.3763   11.4315    0.0000 C   0  0  0  0  0  0  0  0  0  0  0  0
   39.0908   11.8440    0.0000 C   0  0  0  0  0  0  0  0  0  0  0  0
   39.8052   11.4315    0.0000 C   0  0  0  0  0  0  0  0  0  0  0  0
   40.5197   11.8440    0.0000 C   0  0  0  0  0  0  0  0  0  0  0  0
   41.2342   11.4315    0.0000 C   0  0  0  0  0  0  0  0  0  0  0  0
   41.9486   11.8440    0.0000 C   0  0  0  0  0  0  0  0  0  0  0  0
   42.6631   11.4315    0.0000 C   0  0  0  0  0  0  0  0  0  0  0  0
   43.3776   11.8440    0.0000 C   0  0  0  0  0  0  0  0  0  0  0  0
   42.6631   10.6065    0.0000 C   0  0  0  0  0  0  0  0  0  0  0  0
  1  2  1  0  0  0  0
  2  3  1  0  0  0  0
  2  4  1  0  0  0  0
  4  5  1  0  0  0  0
  5  6  1  0  0  0  0
  6  7  1  0  0  0  0
  7  8  1  0  0  0  0
  8  9  1  0  0  0  0
  9 10  1  0  0  0  0
 10 11  1  0  0  0  0
 11 12  1  0  0  0  0
 12 13  1  0  0  0  0
 13 14  1  0  0  0  0
 14 15  1  0  0  0  0
 15 16  1  0  0  0  0
 16 17  1  0  0  0  0
 17 18  1  0  0  0  0
 18 19  1  0  0  0  0
 19 20  1  0  0  0  0
 20 21  2  0  0  0  0
 20 22  1  0  0  0  0
 22 23  1  0  0  0  0
 23 24  1  0  0  0  0
 24 25  1  0  0  0  0
 25 26  1  0  0  0  0
 26 27  1  0  0  0  0
 27 28  1  0  0  0  0
 28 29  1  0  0  0  0
 29 30  1  0  0  0  0
 30 31  1  0  0  0  0
 31 32  1  0  0  0  0
 32 33  1  0  0  0  0
 33 34  1  0  0  0  0
 34 35  1  0  0  0  0
 35 36  1  0  0  0  0
 36 37  1  0  0  0  0
 36 38  1  0  0  0  0
M  END
> <RowID>
1401

> <Original_SMILES>
CC(C)CCCCCCCCCCCCCCCOC(=O)CCCCCCCCCCCCCCC(C)C

> <Canonical_QSARr>
CC(C)CCCCCCCCCCCCCCCOC(=O)CCCCCCCCCCCCCCC(C)C

> <InChI_Code_QSARr>
InChI=1S/C36H72O2/c1-34(2)30-26-22-18-14-10-6-5-9-13-17-21-25-29-33-38-36(37)32-28-24-20-16-12-8-7-11-15-19-23-27-31-35(3)4/h34-35H,5-33H2,1-4H3

> <InChI Key_QSARr>
ABEXEQSGABRUHS-UHFFFAOYSA-N

> <Salt_Solvent>


> <Salt_Solvent_ID>
0

> <Number of connected components>
1

$$$$
Molecule_1402
  Mrv2316 01072400032D          

  9  8  0  0  0  0            999 V2000
    2.9980    2.5559    0.0000 C   0  0  0  0  0  0  0  0  0  0  0  0
    3.7125    2.1434    0.0000 C   0  0  0  0  0  0  0  0  0  0  0  0
    4.4270    2.5559    0.0000 C   0  0  0  0  0  0  0  0  0  0  0  0
    5.1414    2.1434    0.0000 C   0  0  0  0  0  0  0  0  0  0  0  0
    5.8559    2.5559    0.0000 O   0  0  0  0  0  0  0  0  0  0  0  0
    6.5704    2.1434    0.0000 C   0  0  0  0  0  0  0  0  0  0  0  0
    7.2849    2.5559    0.0000 C   0  0  0  0  0  0  0  0  0  0  0  0
    7.9993    2.1434    0.0000 C   0  0  0  0  0  0  0  0  0  0  0  0
    8.7138    2.5559    0.0000 C   0  0  0  0  0  0  0  0  0  0  0  0
  1  2  1  0  0  0  0
  2  3  1  0  0  0  0
  3  4  1  0  0  0  0
  4  5  1  0  0  0  0
  5  6  1  0  0  0  0
  6  7  1  0  0  0  0
  7  8  1  0  0  0  0
  8  9  1  0  0  0  0
M  END
> <RowID>
1402

> <Original_SMILES>
CCCCOCCCC

> <Canonical_QSARr>
CCCCOCCCC

> <InChI_Code_QSARr>
InChI=1S/C8H18O/c1-3-5-7-9-8-6-4-2/h3-8H2,1-2H3

> <InChI Key_QSARr>
DURPTKYDGMDSBL-UHFFFAOYSA-N

> <Salt_Solvent>


> <Salt_Solvent_ID>
0

> <Number of connected components>
1

$$$$
Molecule_1403
  Mrv2316 01072400032D          

 11 11  0  0  0  0            999 V2000
    0.7145   -0.7125    0.0000 N   0  0  0  0  0  0  0  0  0  0  0  0
    0.7145    0.1125    0.0000 C   0  0  0  0  0  0  0  0  0  0  0  0
    1.4289    0.5250    0.0000 C   0  0  0  0  0  0  0  0  0  0  0  0
    1.4289    1.3500    0.0000 C   0  0  0  0  0  0  0  0  0  0  0  0
    0.7145    1.7625    0.0000 C   0  0  0  0  0  0  0  0  0  0  0  0
    0.7145    2.5875    0.0000 Cl  0  0  0  0  0  0  0  0  0  0  0  0
    0.0000    1.3500    0.0000 C   0  0  0  0  0  0  0  0  0  0  0  0
    0.0000    0.5250    0.0000 C   0  0  0  0  0  0  0  0  0  0  0  0
   -0.7145    0.1125    0.0000 N   0  3  0  0  0  0  0  0  0  0  0  0
   -0.7145   -0.7125    0.0000 O   0  5  0  0  0  0  0  0  0  0  0  0
   -1.4289    0.5250    0.0000 O   0  0  0  0  0  0  0  0  0  0  0  0
  1  2  1  0  0  0  0
  3  2  1  0  0  0  0
  4  3  2  0  0  0  0
  5  4  1  0  0  0  0
  5  6  1  0  0  0  0
  7  5  2  0  0  0  0
  8  7  1  0  0  0  0
  2  8  2  0  0  0  0
  8  9  1  0  0  0  0
  9 10  1  0  0  0  0
  9 11  2  0  0  0  0
M  CHG  2   9   1  10  -1
M  END
> <RowID>
1403

> <Original_SMILES>
NC1C=CC(Cl)=CC=1[N+]([O-])=O

> <Canonical_QSARr>
NC1C=CC(Cl)=CC=1[N+]([O-])=O

> <InChI_Code_QSARr>
InChI=1S/C6H5ClN2O2/c7-4-1-2-5(8)6(3-4)9(10)11/h1-3H,8H2

> <InChI Key_QSARr>
PBGKNXWGYQPUJK-UHFFFAOYSA-N

> <Salt_Solvent>


> <Salt_Solvent_ID>
0

> <Number of connected components>
1

$$$$
Molecule_1404
  Mrv2316 01072400032D          

  9  9  0  0  0  0            999 V2000
    0.7145   -1.4208    0.0000 N   0  0  0  0  0  0  0  0  0  0  0  0
    0.7145   -0.5958    0.0000 C   0  0  0  0  0  0  0  0  0  0  0  0
    1.4289   -0.1833    0.0000 C   0  0  0  0  0  0  0  0  0  0  0  0
    1.4289    0.6417    0.0000 C   0  0  0  0  0  0  0  0  0  0  0  0
    0.7145    1.0542    0.0000 C   0  0  0  0  0  0  0  0  0  0  0  0
    0.7145    1.8792    0.0000 N   0  0  0  0  0  0  0  0  0  0  0  0
    0.0000    0.6417    0.0000 C   0  0  0  0  0  0  0  0  0  0  0  0
   -0.7145    1.0542    0.0000 C   0  0  0  0  0  0  0  0  0  0  0  0
    0.0000   -0.1833    0.0000 C   0  0  0  0  0  0  0  0  0  0  0  0
  1  2  1  0  0  0  0
  3  2  1  0  0  0  0
  4  3  2  0  0  0  0
  5  4  1  0  0  0  0
  5  6  1  0  0  0  0
  7  5  2  0  0  0  0
  7  8  1  0  0  0  0
  9  7  1  0  0  0  0
  2  9  2  0  0  0  0
M  END
> <RowID>
1404

> <Original_SMILES>
CC1C=C([NH3+])C=CC=1[NH3+].[O-]S([O-])(=O)=O

> <Canonical_QSARr>
CC1C=C(N)C=CC=1N

> <InChI_Code_QSARr>
InChI=1S/C7H10N2/c1-5-4-6(8)2-3-7(5)9/h2-4H,8-9H2,1H3

> <InChI Key_QSARr>
OBCSAIDCZQSFQH-UHFFFAOYSA-N

> <Salt_Solvent>
[O-]S(=O)(=O)[O-]

> <Salt_Solvent_ID>
2042

> <Number of connected components>
2

$$$$
Molecule_1405
  Mrv2316 01072400032D          

 23 24  0  0  0  0            999 V2000
    0.0000   -7.2815    0.0000 C   0  0  0  0  0  0  0  0  0  0  0  0
    0.7145   -6.8690    0.0000 C   0  0  0  0  0  0  0  0  0  0  0  0
    1.4289   -7.2815    0.0000 C   0  0  0  0  0  0  0  0  0  0  0  0
    2.1434   -6.8690    0.0000 C   0  0  0  0  0  0  0  0  0  0  0  0
    2.8579   -7.2815    0.0000 O   0  0  0  0  0  0  0  0  0  0  0  0
    3.5724   -6.8690    0.0000 C   0  0  0  0  0  0  0  0  0  0  0  0
    3.5724   -6.0440    0.0000 O   0  0  0  0  0  0  0  0  0  0  0  0
    4.2868   -7.2815    0.0000 C   0  0  0  0  0  0  0  0  0  0  0  0
    4.2868   -8.1065    0.0000 C   0  0  0  0  0  0  0  0  0  0  0  0
    5.0013   -8.5190    0.0000 C   0  0  0  0  0  0  0  0  0  0  0  0
    5.7158   -8.1065    0.0000 C   0  0  0  0  0  0  0  0  0  0  0  0
    5.7158   -7.2815    0.0000 C   0  0  0  0  0  0  0  0  0  0  0  0
    5.0013   -6.8690    0.0000 C   0  0  0  0  0  0  0  0  0  0  0  0
    5.0013   -6.0440    0.0000 C   0  0  0  0  0  0  0  0  0  0  0  0
    5.7158   -5.6315    0.0000 O   0  0  0  0  0  0  0  0  0  0  0  0
    4.2868   -5.6315    0.0000 O   0  0  0  0  0  0  0  0  0  0  0  0
    4.2868   -4.8065    0.0000 C   0  0  0  0  0  0  0  0  0  0  0  0
    5.0013   -4.3940    0.0000 C   0  0  0  0  0  0  0  0  0  0  0  0
    5.7158   -4.8065    0.0000 C   0  0  0  0  0  0  0  0  0  0  0  0
    6.4302   -4.3940    0.0000 C   0  0  0  0  0  0  0  0  0  0  0  0
    6.4302   -3.5690    0.0000 C   0  0  0  0  0  0  0  0  0  0  0  0
    5.7158   -3.1565    0.0000 C   0  0  0  0  0  0  0  0  0  0  0  0
    5.0013   -3.5690    0.0000 C   0  0  0  0  0  0  0  0  0  0  0  0
  1  2  1  0  0  0  0
  2  3  1  0  0  0  0
  3  4  1  0  0  0  0
  4  5  1  0  0  0  0
  5  6  1  0  0  0  0
  6  7  2  0  0  0  0
  6  8  1  0  0  0  0
  9  8  1  0  0  0  0
 10  9  2  0  0  0  0
 11 10  1  0  0  0  0
 12 11  2  0  0  0  0
 13 12  1  0  0  0  0
  8 13  2  0  0  0  0
 13 14  1  0  0  0  0
 14 15  2  0  0  0  0
 14 16  1  0  0  0  0
 16 17  1  0  0  0  0
 17 18  1  0  0  0  0
 19 18  1  0  0  0  0
 20 19  2  0  0  0  0
 21 20  1  0  0  0  0
 22 21  2  0  0  0  0
 23 22  1  0  0  0  0
 18 23  2  0  0  0  0
M  END
> <RowID>
1405

> <Original_SMILES>
CCCCOC(=O)C1C=CC=CC=1C(=O)OCC1C=CC=CC=1

> <Canonical_QSARr>
CCCCOC(=O)C1C=CC=CC=1C(=O)OCC1C=CC=CC=1

> <InChI_Code_QSARr>
InChI=1S/C19H20O4/c1-2-3-13-22-18(20)16-11-7-8-12-17(16)19(21)23-14-15-9-5-4-6-10-15/h4-12H,2-3,13-14H2,1H3

> <InChI Key_QSARr>
IRIAEXORFWYRCZ-UHFFFAOYSA-N

> <Salt_Solvent>


> <Salt_Solvent_ID>
0

> <Number of connected components>
1

$$$$
Molecule_1406
  Mrv2316 01072400032D          

 25 24  0  0  0  0            999 V2000
    5.7750    5.1118    0.0000 C   0  0  0  0  0  0  0  0  0  0  0  0
    5.7750    4.2868    0.0000 C   0  0  0  0  0  0  0  0  0  0  0  0
    5.7750    3.4618    0.0000 C   0  0  0  0  0  0  0  0  0  0  0  0
    6.6000    4.2868    0.0000 C   0  0  0  0  0  0  0  0  0  0  0  0
    7.0125    5.0013    0.0000 O   0  0  0  0  0  0  0  0  0  0  0  0
    7.8375    5.0013    0.0000 C   0  0  0  0  0  0  0  0  0  0  0  0
    8.2500    4.2868    0.0000 O   0  0  0  0  0  0  0  0  0  0  0  0
    8.2500    5.7158    0.0000 C   0  0  0  0  0  0  0  0  0  0  0  0
    9.0750    5.7158    0.0000 C   0  0  0  0  0  0  0  0  0  0  0  0
    9.4875    6.4302    0.0000 C   0  0  0  0  0  0  0  0  0  0  0  0
   10.3125    6.4302    0.0000 C   0  0  0  0  0  0  0  0  0  0  0  0
   10.7250    7.1447    0.0000 C   0  0  0  0  0  0  0  0  0  0  0  0
    7.8375    6.4302    0.0000 C   0  0  0  0  0  0  0  0  0  0  0  0
    8.2500    7.1447    0.0000 C   0  0  0  0  0  0  0  0  0  0  0  0
    4.9500    4.2868    0.0000 C   0  0  0  0  0  0  0  0  0  0  0  0
    4.5375    3.5723    0.0000 O   0  0  0  0  0  0  0  0  0  0  0  0
    3.7125    3.5723    0.0000 C   0  0  0  0  0  0  0  0  0  0  0  0
    3.3000    4.2868    0.0000 O   0  0  0  0  0  0  0  0  0  0  0  0
    3.3000    2.8579    0.0000 C   0  0  0  0  0  0  0  0  0  0  0  0
    2.4750    2.8579    0.0000 C   0  0  0  0  0  0  0  0  0  0  0  0
    2.0625    2.1434    0.0000 C   0  0  0  0  0  0  0  0  0  0  0  0
    1.2375    2.1434    0.0000 C   0  0  0  0  0  0  0  0  0  0  0  0
    0.8250    1.4289    0.0000 C   0  0  0  0  0  0  0  0  0  0  0  0
    3.7125    2.1434    0.0000 C   0  0  0  0  0  0  0  0  0  0  0  0
    3.3000    1.4289    0.0000 C   0  0  0  0  0  0  0  0  0  0  0  0
  1  2  1  0  0  0  0
  2  3  1  0  0  0  0
  2  4  1  0  0  0  0
  4  5  1  0  0  0  0
  5  6  1  0  0  0  0
  6  7  2  0  0  0  0
  6  8  1  0  0  0  0
  8  9  1  0  0  0  0
  9 10  1  0  0  0  0
 10 11  1  0  0  0  0
 11 12  1  0  0  0  0
  8 13  1  0  0  0  0
 13 14  1  0  0  0  0
  2 15  1  0  0  0  0
 15 16  1  0  0  0  0
 16 17  1  0  0  0  0
 17 18  2  0  0  0  0
 17 19  1  0  0  0  0
 19 20  1  0  0  0  0
 20 21  1  0  0  0  0
 21 22  1  0  0  0  0
 22 23  1  0  0  0  0
 19 24  1  0  0  0  0
 24 25  1  0  0  0  0
M  END
> <RowID>
1406

> <Original_SMILES>
CC(C)(COC(=O)C(CCCC)CC)COC(=O)C(CCCC)CC

> <Canonical_QSARr>
CC(C)(COC(=O)C(CCCC)CC)COC(=O)C(CCCC)CC

> <InChI_Code_QSARr>
InChI=1S/C21H40O4/c1-7-11-13-17(9-3)19(22)24-15-21(5,6)16-25-20(23)18(10-4)14-12-8-2/h17-18H,7-16H2,1-6H3

> <InChI Key_QSARr>
GORMSINSWZJIKL-UHFFFAOYSA-N

> <Salt_Solvent>


> <Salt_Solvent_ID>
0

> <Number of connected components>
1

$$$$
Molecule_1407
  Mrv2316 01072400032D          

 19 18  0  0  0  0            999 V2000
    7.2336    5.0013    0.0000 C   0  0  0  0  0  0  0  0  0  0  0  0
    7.9481    5.4138    0.0000 C   0  0  0  0  0  0  0  0  0  0  0  0
    8.6625    5.0013    0.0000 C   0  0  0  0  0  0  0  0  0  0  0  0
    9.3770    5.4138    0.0000 C   0  0  0  0  0  0  0  0  0  0  0  0
   10.0915    5.0013    0.0000 C   0  0  0  0  0  0  0  0  0  0  0  0
   10.8060    5.4138    0.0000 C   0  0  0  0  0  0  0  0  0  0  0  0
   11.5204    5.0013    0.0000 C   0  0  0  0  0  0  0  0  0  0  0  0
   12.2349    5.4138    0.0000 C   0  0  0  0  0  0  0  0  0  0  0  0
   12.9494    5.0013    0.0000 C   0  0  0  0  0  0  0  0  0  0  0  0
   13.6638    5.4138    0.0000 C   0  0  0  0  0  0  0  0  0  0  0  0
   14.3783    5.0013    0.0000 C   0  0  0  0  0  0  0  0  0  0  0  0
   15.0928    5.4138    0.0000 C   0  0  0  0  0  0  0  0  0  0  0  0
   15.8073    5.0013    0.0000 C   0  0  0  0  0  0  0  0  0  0  0  0
   16.5217    5.4138    0.0000 C   0  0  0  0  0  0  0  0  0  0  0  0
   17.2362    5.0013    0.0000 C   0  0  0  0  0  0  0  0  0  0  0  0
   17.9507    5.4138    0.0000 C   0  0  0  0  0  0  0  0  0  0  0  0
   17.9507    6.2388    0.0000 O   0  0  0  0  0  0  0  0  0  0  0  0
   18.6651    5.0013    0.0000 O   0  0  0  0  0  0  0  0  0  0  0  0
   19.3796    5.4138    0.0000 C   0  0  0  0  0  0  0  0  0  0  0  0
  1  2  1  0  0  0  0
  2  3  1  0  0  0  0
  3  4  1  0  0  0  0
  4  5  1  0  0  0  0
  5  6  1  0  0  0  0
  6  7  1  0  0  0  0
  7  8  1  0  0  0  0
  8  9  1  0  0  0  0
  9 10  1  0  0  0  0
 10 11  1  0  0  0  0
 11 12  1  0  0  0  0
 12 13  1  0  0  0  0
 13 14  1  0  0  0  0
 14 15  1  0  0  0  0
 15 16  1  0  0  0  0
 16 17  2  0  0  0  0
 16 18  1  0  0  0  0
 18 19  1  0  0  0  0
M  END
> <RowID>
1407

> <Original_SMILES>
CCCCCCCCCCCCCCCC(=O)OC

> <Canonical_QSARr>
CCCCCCCCCCCCCCCC(=O)OC

> <InChI_Code_QSARr>
InChI=1S/C17H34O2/c1-3-4-5-6-7-8-9-10-11-12-13-14-15-16-17(18)19-2/h3-16H2,1-2H3

> <InChI Key_QSARr>
FLIACVVOZYBSBS-UHFFFAOYSA-N

> <Salt_Solvent>


> <Salt_Solvent_ID>
0

> <Number of connected components>
1

$$$$
Molecule_1408
  Mrv2316 01072400032D          

  8  8  0  0  0  0            999 V2000
    0.7145   -1.2375    0.0000 Cl  0  0  0  0  0  0  0  0  0  0  0  0
    0.7145   -0.4125    0.0000 C   0  0  0  0  0  0  0  0  0  0  0  0
    1.4289    0.0000    0.0000 C   0  0  0  0  0  0  0  0  0  0  0  0
    1.4289    0.8250    0.0000 C   0  0  0  0  0  0  0  0  0  0  0  0
    0.7145    1.2375    0.0000 C   0  0  0  0  0  0  0  0  0  0  0  0
    0.7145    2.0625    0.0000 Cl  0  0  0  0  0  0  0  0  0  0  0  0
    0.0000    0.8250    0.0000 C   0  0  0  0  0  0  0  0  0  0  0  0
    0.0000    0.0000    0.0000 C   0  0  0  0  0  0  0  0  0  0  0  0
  1  2  1  0  0  0  0
  3  2  1  0  0  0  0
  4  3  2  0  0  0  0
  5  4  1  0  0  0  0
  5  6  1  0  0  0  0
  7  5  2  0  0  0  0
  8  7  1  0  0  0  0
  2  8  2  0  0  0  0
M  END
> <RowID>
1408

> <Original_SMILES>
ClC1C=CC(Cl)=CC=1

> <Canonical_QSARr>
ClC1C=CC(Cl)=CC=1

> <InChI_Code_QSARr>
InChI=1S/C6H4Cl2/c7-5-1-2-6(8)4-3-5/h1-4H

> <InChI Key_QSARr>
OCJBOOLMMGQPQU-UHFFFAOYSA-N

> <Salt_Solvent>


> <Salt_Solvent_ID>
0

> <Number of connected components>
1

$$$$
Molecule_1409
  Mrv2316 01072400032D          

 10 10  0  0  0  0            999 V2000
    2.3578    1.9387    0.0000 N   0  0  0  0  0  0  0  0  0  0  0  0
    1.6433    1.5262    0.0000 C   0  0  0  0  0  0  0  0  0  0  0  0
    0.9288    1.1137    0.0000 C   0  0  0  0  0  0  0  0  0  0  0  0
    0.2143    1.5263    0.0000 C   0  0  0  0  0  0  0  0  0  0  0  0
    0.2143    2.3513    0.0000 F   0  0  0  0  0  0  0  0  0  0  0  0
   -0.5001    1.1138    0.0000 C   0  0  0  0  0  0  0  0  0  0  0  0
   -0.5001    0.2888    0.0000 C   0  0  0  0  0  0  0  0  0  0  0  0
    0.2143   -0.1237    0.0000 C   0  0  0  0  0  0  0  0  0  0  0  0
    0.9288    0.2887    0.0000 C   0  0  0  0  0  0  0  0  0  0  0  0
    1.6433   -0.1238    0.0000 F   0  0  0  0  0  0  0  0  0  0  0  0
  1  2  3  0  0  0  0
  2  3  1  0  0  0  0
  4  3  1  0  0  0  0
  4  5  1  0  0  0  0
  6  4  2  0  0  0  0
  7  6  1  0  0  0  0
  8  7  2  0  0  0  0
  9  8  1  0  0  0  0
  3  9  2  0  0  0  0
  9 10  1  0  0  0  0
M  END
> <RowID>
1409

> <Original_SMILES>
N#CC1C(F)=CC=CC=1F

> <Canonical_QSARr>
N#CC1C(F)=CC=CC=1F

> <InChI_Code_QSARr>
InChI=1S/C7H3F2N/c8-6-2-1-3-7(9)5(6)4-10/h1-3H

> <InChI Key_QSARr>
BNBRIFIJRKJGEI-UHFFFAOYSA-N

> <Salt_Solvent>


> <Salt_Solvent_ID>
0

> <Number of connected components>
1

$$$$
Molecule_1410
  Mrv2316 01072400032D          

 19 20  0  0  0  0            999 V2000
    4.4372   -4.3855    0.0000 N   0  0  0  0  0  0  0  0  0  0  0  0
    3.7228   -3.9730    0.0000 C   0  0  0  0  0  0  0  0  0  0  0  0
    3.7228   -3.1480    0.0000 C   0  0  0  0  0  0  0  0  0  0  0  0
    3.0083   -2.7355    0.0000 C   0  0  0  0  0  0  0  0  0  0  0  0
    3.0083   -1.9105    0.0000 S   0  0  0  0  0  0  0  0  0  0  0  0
    3.0083   -1.0855    0.0000 O   0  0  0  0  0  0  0  0  0  0  0  0
    2.1833   -1.9105    0.0000 O   0  0  0  0  0  0  0  0  0  0  0  0
    3.8333   -1.9105    0.0000 O   0  0  0  0  0  0  0  0  0  0  0  0
    2.2938   -3.1480    0.0000 C   0  0  0  0  0  0  0  0  0  0  0  0
    1.5794   -2.7355    0.0000 N   0  0  0  0  0  0  0  0  0  0  0  0
    0.8649   -3.1480    0.0000 C   0  0  0  0  0  0  0  0  0  0  0  0
    0.1504   -2.7355    0.0000 C   0  0  0  0  0  0  0  0  0  0  0  0
   -0.5641   -3.1480    0.0000 C   0  0  0  0  0  0  0  0  0  0  0  0
   -0.5641   -3.9730    0.0000 C   0  0  0  0  0  0  0  0  0  0  0  0
   -1.2785   -4.3855    0.0000 N   0  0  0  0  0  0  0  0  0  0  0  0
    0.1504   -4.3855    0.0000 C   0  0  0  0  0  0  0  0  0  0  0  0
    0.8649   -3.9730    0.0000 C   0  0  0  0  0  0  0  0  0  0  0  0
    2.2938   -3.9730    0.0000 C   0  0  0  0  0  0  0  0  0  0  0  0
    3.0083   -4.3855    0.0000 C   0  0  0  0  0  0  0  0  0  0  0  0
  1  2  1  0  0  0  0
  3  2  2  0  0  0  0
  4  3  1  0  0  0  0
  4  5  1  0  0  0  0
  5  6  1  0  0  0  0
  5  7  2  0  0  0  0
  5  8  2  0  0  0  0
  9  4  2  0  0  0  0
  9 10  1  0  0  0  0
 10 11  1  0  0  0  0
 12 11  1  0  0  0  0
 13 12  2  0  0  0  0
 14 13  1  0  0  0  0
 14 15  1  0  0  0  0
 16 14  2  0  0  0  0
 17 16  1  0  0  0  0
 11 17  2  0  0  0  0
 18  9  1  0  0  0  0
 19 18  2  0  0  0  0
  2 19  1  0  0  0  0
M  END
> <RowID>
1410

> <Original_SMILES>
NC1=CC(=C(C=C1)NC1C=CC(N)=CC=1)S(O)(=O)=O

> <Canonical_QSARr>
NC1=CC(=C(C=C1)NC1C=CC(N)=CC=1)S(O)(=O)=O

> <InChI_Code_QSARr>
InChI=1S/C12H13N3O3S/c13-8-1-4-10(5-2-8)15-11-6-3-9(14)7-12(11)19(16,17)18/h1-7,15H,13-14H2,(H,16,17,18)

> <InChI Key_QSARr>
VKURVCNKVWKGLX-UHFFFAOYSA-N

> <Salt_Solvent>


> <Salt_Solvent_ID>
0

> <Number of connected components>
1

$$$$
Molecule_1411
  Mrv2316 01072400032D          

 60 63  0  0  0  0            999 V2000
   -5.3228    4.6406    0.0000 O   0  0  0  0  0  0  0  0  0  0  0  0
   -5.3228    3.8156    0.0000 S   0  0  0  0  0  0  0  0  0  0  0  0
   -6.1478    3.8156    0.0000 O   0  0  0  0  0  0  0  0  0  0  0  0
   -4.4978    3.8156    0.0000 O   0  0  0  0  0  0  0  0  0  0  0  0
   -5.3228    2.9906    0.0000 O   0  0  0  0  0  0  0  0  0  0  0  0
   -4.6083    2.5781    0.0000 C   0  0  0  0  0  0  0  0  0  0  0  0
   -4.6083    1.7531    0.0000 C   0  0  0  0  0  0  0  0  0  0  0  0
   -3.8939    1.3406    0.0000 S   0  0  0  0  0  0  0  0  0  0  0  0
   -3.1794    0.9281    0.0000 C   0  0  0  0  0  0  0  0  0  0  0  0
   -3.1794    0.1031    0.0000 C   0  0  0  0  0  0  0  0  0  0  0  0
   -2.4649   -0.3094    0.0000 C   0  0  0  0  0  0  0  0  0  0  0  0
   -1.7505    0.1031    0.0000 C   0  0  0  0  0  0  0  0  0  0  0  0
   -1.0360   -0.3094    0.0000 N   0  0  0  0  0  0  0  0  0  0  0  0
   -0.3215    0.1031    0.0000 N   0  0  0  0  0  0  0  0  0  0  0  0
    0.3930   -0.3094    0.0000 C   0  0  0  0  0  0  0  0  0  0  0  0
    1.1074    0.1031    0.0000 C   0  0  0  0  0  0  0  0  0  0  0  0
    1.1074    0.9281    0.0000 N   0  0  0  0  0  0  0  0  0  0  0  0
    1.8219   -0.3094    0.0000 C   0  0  0  0  0  0  0  0  0  0  0  0
    2.5364    0.1031    0.0000 C   0  0  0  0  0  0  0  0  0  0  0  0
    3.2508   -0.3094    0.0000 C   0  0  0  0  0  0  0  0  0  0  0  0
    3.9653    0.1031    0.0000 N   0  0  0  0  0  0  0  0  0  0  0  0
    4.6798   -0.3094    0.0000 N   0  0  0  0  0  0  0  0  0  0  0  0
    5.3942    0.1031    0.0000 C   0  0  0  0  0  0  0  0  0  0  0  0
    6.1087   -0.3094    0.0000 C   0  0  0  0  0  0  0  0  0  0  0  0
    6.1087   -1.1344    0.0000 O   0  0  0  0  0  0  0  0  0  0  0  0
    6.8232   -1.5469    0.0000 C   0  0  0  0  0  0  0  0  0  0  0  0
    6.8232    0.1031    0.0000 C   0  0  0  0  0  0  0  0  0  0  0  0
    6.8232    0.9281    0.0000 C   0  0  0  0  0  0  0  0  0  0  0  0
    7.5377    1.3406    0.0000 S   0  0  0  0  0  0  0  0  0  0  0  0
    8.2521    1.7531    0.0000 C   0  0  0  0  0  0  0  0  0  0  0  0
    8.2521    2.5781    0.0000 C   0  0  0  0  0  0  0  0  0  0  0  0
    8.9666    2.9906    0.0000 O   0  0  0  0  0  0  0  0  0  0  0  0
    8.9666    3.8156    0.0000 S   0  0  0  0  0  0  0  0  0  0  0  0
    8.9666    4.6406    0.0000 O   0  0  0  0  0  0  0  0  0  0  0  0
    9.7916    3.8156    0.0000 O   0  0  0  0  0  0  0  0  0  0  0  0
    8.1416    3.8156    0.0000 O   0  0  0  0  0  0  0  0  0  0  0  0
    7.9502    0.6262    0.0000 O   0  0  0  0  0  0  0  0  0  0  0  0
    7.1252    2.0551    0.0000 O   0  0  0  0  0  0  0  0  0  0  0  0
    6.1087    1.3406    0.0000 C   0  0  0  0  0  0  0  0  0  0  0  0
    6.1087    2.1656    0.0000 O   0  0  0  0  0  0  0  0  0  0  0  0
    5.3942    2.5781    0.0000 C   0  0  0  0  0  0  0  0  0  0  0  0
    5.3942    0.9281    0.0000 C   0  0  0  0  0  0  0  0  0  0  0  0
    3.2508   -1.1344    0.0000 C   0  0  0  0  0  0  0  0  0  0  0  0
    2.5364   -1.5469    0.0000 C   0  0  0  0  0  0  0  0  0  0  0  0
    1.8219   -1.1344    0.0000 C   0  0  0  0  0  0  0  0  0  0  0  0
    1.1074   -1.5469    0.0000 C   0  0  0  0  0  0  0  0  0  0  0  0
    0.3930   -1.1344    0.0000 C   0  0  0  0  0  0  0  0  0  0  0  0
   -0.3215   -1.5469    0.0000 S   0  0  0  0  0  0  0  0  0  0  0  0
   -1.0360   -1.9594    0.0000 O   0  0  0  0  0  0  0  0  0  0  0  0
   -0.7340   -0.8324    0.0000 O   0  0  0  0  0  0  0  0  0  0  0  0
    0.0910   -2.2613    0.0000 O   0  0  0  0  0  0  0  0  0  0  0  0
    3.9653   -1.5469    0.0000 S   0  0  0  0  0  0  0  0  0  0  0  0
    4.6798   -1.9594    0.0000 O   0  0  0  0  0  0  0  0  0  0  0  0
    3.5528   -2.2613    0.0000 O   0  0  0  0  0  0  0  0  0  0  0  0
    4.3778   -0.8324    0.0000 O   0  0  0  0  0  0  0  0  0  0  0  0
    2.5364    0.9281    0.0000 O   0  0  0  0  0  0  0  0  0  0  0  0
   -1.7505    0.9281    0.0000 C   0  0  0  0  0  0  0  0  0  0  0  0
   -2.4649    1.3406    0.0000 C   0  0  0  0  0  0  0  0  0  0  0  0
   -4.3064    0.6262    0.0000 O   0  0  0  0  0  0  0  0  0  0  0  0
   -3.4814    2.0551    0.0000 O   0  0  0  0  0  0  0  0  0  0  0  0
  1  2  1  0  0  0  0
  2  3  2  0  0  0  0
  2  4  2  0  0  0  0
  2  5  1  0  0  0  0
  5  6  1  0  0  0  0
  6  7  1  0  0  0  0
  7  8  1  0  0  0  0
  8  9  1  0  0  0  0
 10  9  2  0  0  0  0
 11 10  1  0  0  0  0
 12 11  2  0  0  0  0
 13 12  1  4  0  0  0
 13 14  2  0  0  0  0
 14 15  1  0  0  0  0
 16 15  2  0  0  0  0
 16 17  1  0  0  0  0
 18 16  1  0  0  0  0
 18 19  1  0  0  0  0
 19 20  2  0  0  0  0
 21 20  1  4  0  0  0
 21 22  2  0  0  0  0
 22 23  1  0  0  0  0
 24 23  1  0  0  0  0
 24 25  1  0  0  0  0
 25 26  1  0  0  0  0
 27 24  2  0  0  0  0
 28 27  1  0  0  0  0
 28 29  1  0  0  0  0
 29 30  1  0  0  0  0
 30 31  1  0  0  0  0
 31 32  1  0  0  0  0
 32 33  1  0  0  0  0
 33 34  1  0  0  0  0
 33 35  2  0  0  0  0
 33 36  2  0  0  0  0
 29 37  2  0  0  0  0
 29 38  2  0  0  0  0
 39 28  2  0  0  0  0
 39 40  1  0  0  0  0
 40 41  1  0  0  0  0
 42 39  1  0  0  0  0
 23 42  2  0  0  0  0
 20 43  1  0  0  0  0
 43 44  2  0  0  0  0
 44 45  1  0  0  0  0
 45 18  2  0  0  0  0
 46 45  1  0  0  0  0
 47 46  2  0  0  0  0
 15 47  1  0  0  0  0
 47 48  1  0  0  0  0
 48 49  1  0  0  0  0
 48 50  2  0  0  0  0
 48 51  2  0  0  0  0
 43 52  1  0  0  0  0
 52 53  1  0  0  0  0
 52 54  2  0  0  0  0
 52 55  2  0  0  0  0
 19 56  1  0  0  0  0
 57 12  1  0  0  0  0
 58 57  2  0  0  0  0
  9 58  1  0  0  0  0
  8 59  2  0  0  0  0
  8 60  2  0  0  0  0
M  END
> <RowID>
1411

> <Original_SMILES>
[Na+].[Na+].[Na+].[Na+].COC1=CC(N=NC2=C(O)C3=C(N)C(N=NC4C=CC(=CC=4)S(=O)(=O)CCOS([O-])(=O)=O)=C(C=C3C=C2S([O-])(=O)=O)S([O-])(=O)=O)=C(C=C1S(=O)(=O)CCOS([O-])(=O)=O)OC

> <Canonical_QSARr>
COC1C=C(N=NC2C(=CC3C=C(C(N=NC4=CC=C(C=C4)S(=O)(=O)CCOS(O)(=O)=O)=C(N)C=3C=2O)S(O)(=O)=O)S(O)(=O)=O)C(=CC=1S(=O)(=O)CCOS(O)(=O)=O)OC

> <InChI_Code_QSARr>
InChI=1S/C28H29N5O21S6/c1-51-19-14-21(56(37,38)10-8-54-60(48,49)50)20(52-2)13-18(19)31-33-27-23(58(42,43)44)12-15-11-22(57(39,40)41)26(25(29)24(15)28(27)34)32-30-16-3-5-17(6-4-16)55(35,36)9-7-53-59(45,46)47/h3-6,11-14,34H,7-10,29H2,1-2H3,(H,39,40,41)(H,42,43,44)(H,45,46,47)(H,48,49,50)

> <InChI Key_QSARr>
RDZHWLXAYXSNHT-UHFFFAOYSA-N

> <Salt_Solvent>
[Na+]

> <Salt_Solvent_ID>
110

> <Number of connected components>
5

$$$$
Molecule_1412
  Mrv2316 01072400032D          

 15 16  0  0  0  0            999 V2000
    4.5726   -5.4450    0.0000 O   0  0  0  0  0  0  0  0  0  0  0  0
    4.5726   -4.6200    0.0000 C   0  0  0  0  0  0  0  0  0  0  0  0
    3.8581   -4.2075    0.0000 C   0  0  0  0  0  0  0  0  0  0  0  0
    3.8581   -3.3825    0.0000 C   0  0  0  0  0  0  0  0  0  0  0  0
    3.1437   -2.9700    0.0000 C   0  0  0  0  0  0  0  0  0  0  0  0
    3.1437   -2.1450    0.0000 O   0  0  0  0  0  0  0  0  0  0  0  0
    2.4292   -1.7325    0.0000 C   0  0  0  0  0  0  0  0  0  0  0  0
    2.4292   -0.9075    0.0000 C   0  0  0  0  0  0  0  0  0  0  0  0
    1.7147   -0.4950    0.0000 C   0  0  0  0  0  0  0  0  0  0  0  0
    1.0003   -0.9075    0.0000 C   0  0  0  0  0  0  0  0  0  0  0  0
    1.0003   -1.7325    0.0000 C   0  0  0  0  0  0  0  0  0  0  0  0
    1.7147   -2.1450    0.0000 C   0  0  0  0  0  0  0  0  0  0  0  0
    2.4292   -3.3825    0.0000 C   0  0  0  0  0  0  0  0  0  0  0  0
    2.4292   -4.2075    0.0000 C   0  0  0  0  0  0  0  0  0  0  0  0
    3.1437   -4.6200    0.0000 C   0  0  0  0  0  0  0  0  0  0  0  0
  1  2  2  0  0  0  0
  2  3  1  0  0  0  0
  4  3  2  0  0  0  0
  5  4  1  0  0  0  0
  5  6  1  0  0  0  0
  6  7  1  0  0  0  0
  8  7  1  0  0  0  0
  9  8  2  0  0  0  0
 10  9  1  0  0  0  0
 11 10  2  0  0  0  0
 12 11  1  0  0  0  0
  7 12  2  0  0  0  0
 13  5  2  0  0  0  0
 14 13  1  0  0  0  0
 15 14  2  0  0  0  0
  3 15  1  0  0  0  0
M  END
> <RowID>
1412

> <Original_SMILES>
O=CC1=CC(=CC=C1)OC1C=CC=CC=1

> <Canonical_QSARr>
O=CC1=CC(=CC=C1)OC1C=CC=CC=1

> <InChI_Code_QSARr>
InChI=1S/C13H10O2/c14-10-11-5-4-8-13(9-11)15-12-6-2-1-3-7-12/h1-10H

> <InChI Key_QSARr>
MRLGCTNJRREZHZ-UHFFFAOYSA-N

> <Salt_Solvent>


> <Salt_Solvent_ID>
0

> <Number of connected components>
1

$$$$
Molecule_1413
  Mrv2316 01072400032D          

 17 17  0  0  0  0            999 V2000
   -0.2522    2.7662    0.0000 C   0  0  0  0  0  0  0  0  0  0  0  0
    0.4623    2.3537    0.0000 C   0  0  0  0  0  0  0  0  0  0  0  0
    1.1768    2.7662    0.0000 C   0  0  0  0  0  0  0  0  0  0  0  0
    0.4623    1.5287    0.0000 C   0  0  0  0  0  0  0  0  0  0  0  0
    1.1768    1.1162    0.0000 C   0  0  0  0  0  0  0  0  0  0  0  0
    1.1768    0.2912    0.0000 C   0  0  0  0  0  0  0  0  0  0  0  0
    0.4623   -0.1213    0.0000 C   0  0  0  0  0  0  0  0  0  0  0  0
    0.4623   -0.9463    0.0000 C   0  0  0  0  0  0  0  0  0  0  0  0
    1.1768   -1.3588    0.0000 C   0  0  0  0  0  0  0  0  0  0  0  0
    1.8912   -0.9463    0.0000 C   0  0  0  0  0  0  0  0  0  0  0  0
    2.6057   -1.3588    0.0000 C   0  0  0  0  0  0  0  0  0  0  0  0
    3.3202   -0.9463    0.0000 C   0  0  0  0  0  0  0  0  0  0  0  0
    3.3202   -0.1213    0.0000 C   0  0  0  0  0  0  0  0  0  0  0  0
    2.6057    0.2912    0.0000 C   0  0  0  0  0  0  0  0  0  0  0  0
    2.6057    1.1162    0.0000 C   0  0  0  0  0  0  0  0  0  0  0  0
    1.8912    1.5287    0.0000 C   0  0  0  0  0  0  0  0  0  0  0  0
    1.8912    2.3537    0.0000 O   0  0  0  0  0  0  0  0  0  0  0  0
  1  2  1  0  0  0  0
  2  3  2  0  0  0  0
  2  4  1  0  0  0  0
  4  5  1  0  0  0  0
  6  5  1  0  0  0  0
  7  6  1  0  0  0  0
  8  7  1  0  0  0  0
  9  8  1  0  0  0  0
 10  9  1  0  0  0  0
 11 10  1  0  0  0  0
 12 11  1  0  0  0  0
 13 12  1  0  0  0  0
 14 13  1  0  0  0  0
 15 14  1  0  0  0  0
 16 15  1  0  0  0  0
  5 16  1  0  0  0  0
 16 17  2  0  0  0  0
M  END
> <RowID>
1413

> <Original_SMILES>
CC(=C)CC1CCCCCCCCCCC1=O

> <Canonical_QSARr>
CC(=C)CC1CCCCCCCCCCC1=O

> <InChI_Code_QSARr>
InChI=1S/C16H28O/c1-14(2)13-15-11-9-7-5-3-4-6-8-10-12-16(15)17/h15H,1,3-13H2,2H3

> <InChI Key_QSARr>
RSOBFXURUKCIKG-UHFFFAOYSA-N

> <Salt_Solvent>


> <Salt_Solvent_ID>
0

> <Number of connected components>
1

$$$$
Molecule_1414
  Mrv2316 01072400032D          

 10 10  0  0  0  0            999 V2000
    0.7145   -2.0625    0.0000 N   0  0  0  0  0  0  0  0  0  0  0  0
    0.7145   -1.2375    0.0000 C   0  0  0  0  0  0  0  0  0  0  0  0
    1.4289   -0.8250    0.0000 C   0  0  0  0  0  0  0  0  0  0  0  0
    1.4289   -0.0000    0.0000 C   0  0  0  0  0  0  0  0  0  0  0  0
    0.7145    0.4125    0.0000 C   0  0  0  0  0  0  0  0  0  0  0  0
    0.7145    1.2375    0.0000 N   0  3  0  0  0  0  0  0  0  0  0  0
   -0.0000    1.6500    0.0000 O   0  5  0  0  0  0  0  0  0  0  0  0
    1.4289    1.6500    0.0000 O   0  0  0  0  0  0  0  0  0  0  0  0
   -0.0000   -0.0000    0.0000 C   0  0  0  0  0  0  0  0  0  0  0  0
   -0.0000   -0.8250    0.0000 C   0  0  0  0  0  0  0  0  0  0  0  0
  1  2  1  0  0  0  0
  3  2  2  0  0  0  0
  4  3  1  0  0  0  0
  5  4  2  0  0  0  0
  5  6  1  0  0  0  0
  6  7  1  0  0  0  0
  6  8  2  0  0  0  0
  9  5  1  0  0  0  0
 10  9  2  0  0  0  0
  2 10  1  0  0  0  0
M  CHG  2   6   1   7  -1
M  END
> <RowID>
1414

> <Original_SMILES>
NC1=CC=C(C=C1)[N+]([O-])=O

> <Canonical_QSARr>
NC1=CC=C(C=C1)[N+]([O-])=O

> <InChI_Code_QSARr>
InChI=1S/C6H6N2O2/c7-5-1-3-6(4-2-5)8(9)10/h1-4H,7H2

> <InChI Key_QSARr>
TYMLOMAKGOJONV-UHFFFAOYSA-N

> <Salt_Solvent>


> <Salt_Solvent_ID>
0

> <Number of connected components>
1

$$$$
Molecule_1415
  Mrv2316 01072400032D          

 14 14  0  0  0  0            999 V2000
    2.2965   -0.6777    0.0000 N   0  0  0  0  0  0  0  0  0  0  0  0
    1.5820   -0.2652    0.0000 C   0  0  0  0  0  0  0  0  0  0  0  0
    1.5820    0.5598    0.0000 C   0  0  0  0  0  0  0  0  0  0  0  0
    0.8676    0.9723    0.0000 C   0  0  0  0  0  0  0  0  0  0  0  0
    0.8676    1.7973    0.0000 N   0  3  0  0  0  0  0  0  0  0  0  0
    1.5820    2.2098    0.0000 O   0  5  0  0  0  0  0  0  0  0  0  0
    0.1531    2.2098    0.0000 O   0  0  0  0  0  0  0  0  0  0  0  0
    0.1531    0.5598    0.0000 C   0  0  0  0  0  0  0  0  0  0  0  0
    0.1531   -0.2652    0.0000 C   0  0  0  0  0  0  0  0  0  0  0  0
   -0.5614   -0.6777    0.0000 C   0  0  0  0  0  0  0  0  0  0  0  0
   -0.5614   -1.5027    0.0000 O   0  0  0  0  0  0  0  0  0  0  0  0
   -1.2758   -0.2652    0.0000 O   0  0  0  0  0  0  0  0  0  0  0  0
    0.8676   -0.6777    0.0000 C   0  0  0  0  0  0  0  0  0  0  0  0
    0.8676   -1.5027    0.0000 O   0  0  0  0  0  0  0  0  0  0  0  0
  1  2  1  0  0  0  0
  3  2  2  0  0  0  0
  4  3  1  0  0  0  0
  4  5  1  0  0  0  0
  5  6  1  0  0  0  0
  5  7  2  0  0  0  0
  8  4  2  0  0  0  0
  9  8  1  0  0  0  0
  9 10  1  0  0  0  0
 10 11  1  0  0  0  0
 10 12  2  0  0  0  0
 13  9  2  0  0  0  0
  2 13  1  0  0  0  0
 13 14  1  0  0  0  0
M  CHG  2   5   1   6  -1
M  END
> <RowID>
1415

> <Original_SMILES>
NC1=CC(=CC(=C1O)C(O)=O)[N+]([O-])=O

> <Canonical_QSARr>
NC1=CC(=CC(=C1O)C(O)=O)[N+]([O-])=O

> <InChI_Code_QSARr>
InChI=1S/C7H6N2O5/c8-5-2-3(9(13)14)1-4(6(5)10)7(11)12/h1-2,10H,8H2,(H,11,12)

> <InChI Key_QSARr>
JFTUSFFYSRNFBA-UHFFFAOYSA-N

> <Salt_Solvent>


> <Salt_Solvent_ID>
0

> <Number of connected components>
1

$$$$
Molecule_1416
  Mrv2316 01072400032D          

 30 33  0  0  0  0            999 V2000
   -0.2858   -0.2475    0.0000 O   0  0  0  0  0  0  0  0  0  0  0  0
    0.4287   -0.6600    0.0000 C   0  0  0  0  0  0  0  0  0  0  0  0
    1.1432   -0.2475    0.0000 C   0  0  0  0  0  0  0  0  0  0  0  0
    1.1432    0.5775    0.0000 N   0  0  0  0  0  0  0  0  0  0  0  0
    1.8576    0.9900    0.0000 N   0  0  0  0  0  0  0  0  0  0  0  0
    1.8576    1.8150    0.0000 C   0  0  0  0  0  0  0  0  0  0  0  0
    2.5721    2.2275    0.0000 C   0  0  0  0  0  0  0  0  0  0  0  0
    2.5721    3.0525    0.0000 C   0  0  0  0  0  0  0  0  0  0  0  0
    3.2866    3.4650    0.0000 Cl  0  0  0  0  0  0  0  0  0  0  0  0
    1.8576    3.4650    0.0000 C   0  0  0  0  0  0  0  0  0  0  0  0
    1.1432    3.0525    0.0000 C   0  0  0  0  0  0  0  0  0  0  0  0
    1.1432    2.2275    0.0000 C   0  0  0  0  0  0  0  0  0  0  0  0
    0.4287    1.8150    0.0000 Cl  0  0  0  0  0  0  0  0  0  0  0  0
    1.8576   -0.6600    0.0000 C   0  0  0  0  0  0  0  0  0  0  0  0
    2.5721   -0.2475    0.0000 C   0  0  0  0  0  0  0  0  0  0  0  0
    3.2866   -0.6600    0.0000 C   0  0  0  0  0  0  0  0  0  0  0  0
    3.2866   -1.4850    0.0000 C   0  0  0  0  0  0  0  0  0  0  0  0
    2.5721   -1.8975    0.0000 C   0  0  0  0  0  0  0  0  0  0  0  0
    1.8576   -1.4850    0.0000 C   0  0  0  0  0  0  0  0  0  0  0  0
    1.1432   -1.8975    0.0000 C   0  0  0  0  0  0  0  0  0  0  0  0
    0.4287   -1.4850    0.0000 C   0  0  0  0  0  0  0  0  0  0  0  0
   -0.2858   -1.8975    0.0000 C   0  0  0  0  0  0  0  0  0  0  0  0
   -0.2858   -2.7225    0.0000 O   0  0  0  0  0  0  0  0  0  0  0  0
   -1.0003   -1.4850    0.0000 N   0  0  0  0  0  0  0  0  0  0  0  0
   -1.7147   -1.8975    0.0000 C   0  0  0  0  0  0  0  0  0  0  0  0
   -2.4292   -1.4850    0.0000 C   0  0  0  0  0  0  0  0  0  0  0  0
   -3.1437   -1.8975    0.0000 C   0  0  0  0  0  0  0  0  0  0  0  0
   -3.1437   -2.7225    0.0000 C   0  0  0  0  0  0  0  0  0  0  0  0
   -2.4292   -3.1350    0.0000 C   0  0  0  0  0  0  0  0  0  0  0  0
   -1.7147   -2.7225    0.0000 C   0  0  0  0  0  0  0  0  0  0  0  0
  1  2  1  0  0  0  0
  3  2  1  0  0  0  0
  4  3  1  4  0  0  0
  4  5  2  0  0  0  0
  5  6  1  0  0  0  0
  7  6  2  0  0  0  0
  8  7  1  0  0  0  0
  8  9  1  0  0  0  0
 10  8  2  0  0  0  0
 11 10  1  0  0  0  0
 12 11  2  0  0  0  0
  6 12  1  0  0  0  0
 12 13  1  0  0  0  0
 14  3  2  0  0  0  0
 14 15  1  0  0  0  0
 15 16  2  0  0  0  0
 16 17  1  0  0  0  0
 17 18  2  0  0  0  0
 18 19  1  0  0  0  0
 19 14  1  0  0  0  0
 20 19  2  0  0  0  0
 21 20  1  0  0  0  0
  2 21  2  0  0  0  0
 21 22  1  0  0  0  0
 22 23  2  0  0  0  0
 22 24  1  0  0  0  0
 24 25  1  0  0  0  0
 26 25  1  0  0  0  0
 27 26  2  0  0  0  0
 28 27  1  0  0  0  0
 29 28  2  0  0  0  0
 30 29  1  0  0  0  0
 25 30  2  0  0  0  0
M  END
> <RowID>
1416

> <Original_SMILES>
OC1C(N=NC2=CC(Cl)=CC=C2Cl)=C2C=CC=CC2=CC=1C(=O)NC1C=CC=CC=1

> <Canonical_QSARr>
OC1C(N=NC2=CC(Cl)=CC=C2Cl)=C2C=CC=CC2=CC=1C(=O)NC1C=CC=CC=1

> <InChI_Code_QSARr>
InChI=1S/C23H15Cl2N3O2/c24-15-10-11-19(25)20(13-15)27-28-21-17-9-5-4-6-14(17)12-18(22(21)29)23(30)26-16-7-2-1-3-8-16/h1-13,29H,(H,26,30)

> <InChI Key_QSARr>
HXJSTOXKASOAQW-UHFFFAOYSA-N

> <Salt_Solvent>


> <Salt_Solvent_ID>
0

> <Number of connected components>
1

$$$$
Molecule_1417
  Mrv2316 01072400032D          

  8  8  0  0  0  0            999 V2000
    1.3959   -0.6093    0.0000 C   0  0  0  0  0  0  0  0  0  0  0  0
    0.9110    0.0581    0.0000 C   0  0  0  0  0  0  0  0  0  0  0  0
    1.1659    0.8427    0.0000 C   0  0  0  0  0  0  0  0  0  0  0  0
    0.4985    1.3277    0.0000 C   0  0  0  0  0  0  0  0  0  0  0  0
    0.4985    2.1527    0.0000 O   0  0  0  0  0  0  0  0  0  0  0  0
   -0.1690    0.8427    0.0000 O   0  0  0  0  0  0  0  0  0  0  0  0
    0.0860    0.0581    0.0000 C   0  0  0  0  0  0  0  0  0  0  0  0
   -0.3990   -0.6093    0.0000 O   0  0  0  0  0  0  0  0  0  0  0  0
  1  2  1  0  0  0  0
  3  2  2  0  0  0  0
  4  3  1  0  0  0  0
  4  5  2  0  0  0  0
  6  4  1  0  0  0  0
  7  6  1  0  0  0  0
  2  7  1  0  0  0  0
  7  8  2  0  0  0  0
M  END
> <RowID>
1417

> <Original_SMILES>
CC1=CC(=O)OC1=O

> <Canonical_QSARr>
CC1=CC(=O)OC1=O

> <InChI_Code_QSARr>
InChI=1S/C5H4O3/c1-3-2-4(6)8-5(3)7/h2H,1H3

> <InChI Key_QSARr>
AYKYXWQEBUNJCN-UHFFFAOYSA-N

> <Salt_Solvent>


> <Salt_Solvent_ID>
0

> <Number of connected components>
1

$$$$
Molecule_1418
  Mrv2316 01072400032D          

  9 10  0  0  0  0            999 V2000
    0.7145    1.2375    0.0000 C   0  0  0  0  0  0  0  0  0  0  0  0
    0.0000    0.8250    0.0000 C   0  0  0  0  0  0  0  0  0  0  0  0
    0.0000    0.0000    0.0000 C   0  0  0  0  0  0  0  0  0  0  0  0
   -0.7846   -0.2549    0.0000 S   0  0  0  0  0  0  0  0  0  0  0  0
   -1.2695    0.4125    0.0000 C   0  0  0  0  0  0  0  0  0  0  0  0
   -0.7846    1.0799    0.0000 C   0  0  0  0  0  0  0  0  0  0  0  0
    0.7145   -0.4125    0.0000 C   0  0  0  0  0  0  0  0  0  0  0  0
    1.4289   -0.0000    0.0000 C   0  0  0  0  0  0  0  0  0  0  0  0
    1.4289    0.8250    0.0000 N   0  0  0  0  0  0  0  0  0  0  0  0
  2  1  1  0  0  0  0
  2  3  2  0  0  0  0
  3  4  1  0  0  0  0
  4  5  1  0  0  0  0
  5  6  2  0  0  0  0
  6  2  1  0  0  0  0
  7  3  1  0  0  0  0
  8  7  1  0  0  0  0
  9  8  1  0  0  0  0
  1  9  1  0  0  0  0
M  END
> <RowID>
1418

> <Original_SMILES>
Cl.C1NCCC2SC=CC=21

> <Canonical_QSARr>
C1NCCC2SC=CC=21

> <InChI_Code_QSARr>
InChI=1S/C7H9NS/c1-3-8-5-6-2-4-9-7(1)6/h2,4,8H,1,3,5H2

> <InChI Key_QSARr>
OGUWOLDNYOTRBO-UHFFFAOYSA-N

> <Salt_Solvent>
Cl

> <Salt_Solvent_ID>
170

> <Number of connected components>
2

$$$$
Molecule_1419
  Mrv2316 01072400032D          

 14 15  0  0  0  0            999 V2000
    0.6957    1.0291    0.0000 C   0  0  0  0  0  0  0  0  0  0  0  0
    1.3619    0.1716    0.0000 C   0  0  0  0  0  0  0  0  0  0  0  0
    0.7041   -0.6785    0.0000 C   0  0  0  0  0  0  0  0  0  0  0  0
    1.1557    0.9966    0.0000 C   0  0  0  0  0  0  0  0  0  0  0  0
    0.4412    0.5841    0.0000 C   0  0  0  0  0  0  0  0  0  0  0  0
    0.4412   -0.2409    0.0000 C   0  0  0  0  0  0  0  0  0  0  0  0
   -0.4230   -0.5421    0.0000 O   0  0  0  0  0  0  0  0  0  0  0  0
   -1.2641   -0.3722    0.0000 C   0  0  0  0  0  0  0  0  0  0  0  0
   -1.8099   -0.9908    0.0000 C   0  0  0  0  0  0  0  0  0  0  0  0
   -1.5269    0.4098    0.0000 O   0  0  0  0  0  0  0  0  0  0  0  0
    1.1557   -0.6534    0.0000 C   0  0  0  0  0  0  0  0  0  0  0  0
    1.4254   -1.5460    0.0000 C   0  0  0  0  0  0  0  0  0  0  0  0
    1.8701   -0.2409    0.0000 C   0  0  0  0  0  0  0  0  0  0  0  0
    1.8701    0.5841    0.0000 C   0  0  0  0  0  0  0  0  0  0  0  0
  1  2  1  0  0  0  0
  2  3  1  0  0  0  0
  4  2  1  0  0  0  0
  4  5  1  0  0  0  0
  5  6  1  0  0  0  0
  6  7  1  0  0  0  0
  7  8  1  0  0  0  0
  8  9  1  0  0  0  0
  8 10  2  0  0  0  0
  6 11  1  0  0  0  0
  2 11  1  0  0  0  0
 11 12  1  0  0  0  0
 11 13  1  0  0  0  0
 13 14  1  0  0  0  0
 14  4  1  0  0  0  0
M  END
> <RowID>
1419

> <Original_SMILES>
CC1(C)C2CC(OC(C)=O)C1(C)CC2

> <Canonical_QSARr>
CC1(C)C2CC(OC(C)=O)C1(C)CC2

> <InChI_Code_QSARr>
InChI=1S/C12H20O2/c1-8(13)14-10-7-9-5-6-12(10,4)11(9,2)3/h9-10H,5-7H2,1-4H3

> <InChI Key_QSARr>
KGEKLUUHTZCSIP-UHFFFAOYSA-N

> <Salt_Solvent>


> <Salt_Solvent_ID>
0

> <Number of connected components>
1

$$$$
Molecule_1420
  Mrv2316 01072400032D          

 38 40  0  0  0  0            999 V2000
   -4.0236   -7.0559    0.0000 O   0  0  0  0  0  0  0  0  0  0  0  0
   -3.3091   -6.6434    0.0000 C   0  0  0  0  0  0  0  0  0  0  0  0
   -3.3091   -5.8184    0.0000 C   0  0  0  0  0  0  0  0  0  0  0  0
   -2.5947   -5.4059    0.0000 O   0  0  0  0  0  0  0  0  0  0  0  0
   -2.5947   -4.5809    0.0000 C   0  0  0  0  0  0  0  0  0  0  0  0
   -1.8802   -4.1684    0.0000 C   0  0  0  0  0  0  0  0  0  0  0  0
   -1.8802   -3.3434    0.0000 O   0  0  0  0  0  0  0  0  0  0  0  0
   -1.1657   -2.9309    0.0000 C   0  0  0  0  0  0  0  0  0  0  0  0
   -1.1657   -2.1059    0.0000 C   0  0  0  0  0  0  0  0  0  0  0  0
   -0.4513   -1.6934    0.0000 C   0  0  0  0  0  0  0  0  0  0  0  0
   -0.4513   -0.8684    0.0000 N   0  0  0  0  0  0  0  0  0  0  0  0
    0.2632   -0.4559    0.0000 C   0  0  0  0  0  0  0  0  0  0  0  0
    0.2632    0.3691    0.0000 C   0  0  0  0  0  0  0  0  0  0  0  0
    0.9777    0.7816    0.0000 C   0  0  0  0  0  0  0  0  0  0  0  0
    1.6922    0.3691    0.0000 C   0  0  0  0  0  0  0  0  0  0  0  0
    2.4066    0.7816    0.0000 N   0  0  0  0  0  0  0  0  0  0  0  0
    3.1211    0.3691    0.0000 C   0  0  0  0  0  0  0  0  0  0  0  0
    3.8356    0.7816    0.0000 C   0  0  0  0  0  0  0  0  0  0  0  0
    4.5500    0.3691    0.0000 C   0  0  0  0  0  0  0  0  0  0  0  0
    5.2645    0.7816    0.0000 O   0  0  0  0  0  0  0  0  0  0  0  0
    5.9790    0.3691    0.0000 C   0  0  0  0  0  0  0  0  0  0  0  0
    6.6935    0.7816    0.0000 C   0  0  0  0  0  0  0  0  0  0  0  0
    7.4079    0.3691    0.0000 O   0  0  0  0  0  0  0  0  0  0  0  0
    8.1224    0.7816    0.0000 C   0  0  0  0  0  0  0  0  0  0  0  0
    8.8369    0.3691    0.0000 C   0  0  0  0  0  0  0  0  0  0  0  0
    9.5513    0.7816    0.0000 O   0  0  0  0  0  0  0  0  0  0  0  0
    1.6922   -0.4559    0.0000 C   0  0  0  0  0  0  0  0  0  0  0  0
    0.9777   -0.8684    0.0000 C   0  0  0  0  0  0  0  0  0  0  0  0
    0.9777   -1.6934    0.0000 C   0  0  0  0  0  0  0  0  0  0  0  0
    0.2632   -2.1059    0.0000 O   0  0  0  0  0  0  0  0  0  0  0  0
    1.6922   -2.1059    0.0000 C   0  0  0  0  0  0  0  0  0  0  0  0
    1.6922   -2.9309    0.0000 C   0  0  0  0  0  0  0  0  0  0  0  0
    2.4066   -3.3434    0.0000 C   0  0  0  0  0  0  0  0  0  0  0  0
    3.1211   -2.9309    0.0000 C   0  0  0  0  0  0  0  0  0  0  0  0
    3.1211   -2.1059    0.0000 C   0  0  0  0  0  0  0  0  0  0  0  0
    2.4066   -1.6934    0.0000 C   0  0  0  0  0  0  0  0  0  0  0  0
    2.4066   -0.8684    0.0000 C   0  0  0  0  0  0  0  0  0  0  0  0
    3.1211   -0.4559    0.0000 O   0  0  0  0  0  0  0  0  0  0  0  0
  1  2  1  0  0  0  0
  2  3  1  0  0  0  0
  3  4  1  0  0  0  0
  4  5  1  0  0  0  0
  5  6  1  0  0  0  0
  6  7  1  0  0  0  0
  7  8  1  0  0  0  0
  8  9  1  0  0  0  0
  9 10  1  0  0  0  0
 10 11  1  0  0  0  0
 11 12  1  0  0  0  0
 13 12  1  0  0  0  0
 14 13  2  0  0  0  0
 15 14  1  0  0  0  0
 15 16  1  0  0  0  0
 16 17  1  0  0  0  0
 17 18  1  0  0  0  0
 18 19  1  0  0  0  0
 19 20  1  0  0  0  0
 20 21  1  0  0  0  0
 21 22  1  0  0  0  0
 22 23  1  0  0  0  0
 23 24  1  0  0  0  0
 24 25  1  0  0  0  0
 25 26  1  0  0  0  0
 27 15  2  0  0  0  0
 27 28  1  0  0  0  0
 12 28  2  0  0  0  0
 28 29  1  0  0  0  0
 29 30  2  0  0  0  0
 29 31  1  0  0  0  0
 32 31  2  0  0  0  0
 33 32  1  0  0  0  0
 34 33  2  0  0  0  0
 35 34  1  0  0  0  0
 36 35  2  0  0  0  0
 31 36  1  0  0  0  0
 36 37  1  0  0  0  0
 37 27  1  0  0  0  0
 37 38  2  0  0  0  0
M  END
> <RowID>
1420

> <Original_SMILES>
OCCOCCOCCCNC1C=CC(NCCCOCCOCCO)=C2C=1C(=O)C1=CC=CC=C1C2=O

> <Canonical_QSARr>
OCCOCCOCCCNC1C=CC(NCCCOCCOCCO)=C2C=1C(=O)C1=CC=CC=C1C2=O

> <InChI_Code_QSARr>
InChI=1S/C28H38N2O8/c31-11-15-37-19-17-35-13-3-9-29-23-7-8-24(30-10-4-14-36-18-20-38-16-12-32)26-25(23)27(33)21-5-1-2-6-22(21)28(26)34/h1-2,5-8,29-32H,3-4,9-20H2

> <InChI Key_QSARr>
FRFQXYOWMSJIJR-UHFFFAOYSA-N

> <Salt_Solvent>


> <Salt_Solvent_ID>
0

> <Number of connected components>
1

$$$$
Molecule_1421
  Mrv2316 01072400032D          

 12 11  0  0  0  0            999 V2000
    3.5211    2.8579    0.0000 C   0  0  0  0  0  0  0  0  0  0  0  0
    4.2355    3.2704    0.0000 C   0  0  0  0  0  0  0  0  0  0  0  0
    4.9500    2.8579    0.0000 O   0  0  0  0  0  0  0  0  0  0  0  0
    5.6645    3.2704    0.0000 C   0  0  0  0  0  0  0  0  0  0  0  0
    6.3789    2.8579    0.0000 C   0  0  0  0  0  0  0  0  0  0  0  0
    7.0934    3.2704    0.0000 O   0  0  0  0  0  0  0  0  0  0  0  0
    7.8079    2.8579    0.0000 C   0  0  0  0  0  0  0  0  0  0  0  0
    8.5224    3.2704    0.0000 C   0  0  0  0  0  0  0  0  0  0  0  0
    9.2368    2.8579    0.0000 O   0  0  0  0  0  0  0  0  0  0  0  0
    9.9513    3.2704    0.0000 C   0  0  0  0  0  0  0  0  0  0  0  0
   10.6658    2.8579    0.0000 C   0  0  0  0  0  0  0  0  0  0  0  0
   11.3802    3.2704    0.0000 O   0  0  0  0  0  0  0  0  0  0  0  0
  1  2  1  0  0  0  0
  2  3  1  0  0  0  0
  3  4  1  0  0  0  0
  4  5  1  0  0  0  0
  5  6  1  0  0  0  0
  6  7  1  0  0  0  0
  7  8  1  0  0  0  0
  8  9  1  0  0  0  0
  9 10  1  0  0  0  0
 10 11  1  0  0  0  0
 11 12  1  0  0  0  0
M  END
> <RowID>
1421

> <Original_SMILES>
CCOCCOCCOCCO

> <Canonical_QSARr>
CCOCCOCCOCCO

> <InChI_Code_QSARr>
InChI=1S/C8H18O4/c1-2-10-5-6-12-8-7-11-4-3-9/h9H,2-8H2,1H3

> <InChI Key_QSARr>
WFSMVVDJSNMRAR-UHFFFAOYSA-N

> <Salt_Solvent>


> <Salt_Solvent_ID>
0

> <Number of connected components>
1

$$$$
Molecule_1422
  Mrv2316 01072400032D          

 11 11  0  0  0  0            999 V2000
    2.3383   -0.7500    0.0000 C   0  0  0  0  0  0  0  0  0  0  0  0
    1.6238   -0.3375    0.0000 C   0  0  0  0  0  0  0  0  0  0  0  0
    1.6238    0.4875    0.0000 C   0  0  0  0  0  0  0  0  0  0  0  0
    0.9093    0.9000    0.0000 C   0  0  0  0  0  0  0  0  0  0  0  0
    0.9093    1.7250    0.0000 N   0  3  0  0  0  0  0  0  0  0  0  0
    0.1949    2.1375    0.0000 O   0  5  0  0  0  0  0  0  0  0  0  0
    1.6238    2.1375    0.0000 O   0  0  0  0  0  0  0  0  0  0  0  0
    0.1949    0.4875    0.0000 C   0  0  0  0  0  0  0  0  0  0  0  0
    0.1949   -0.3375    0.0000 C   0  0  0  0  0  0  0  0  0  0  0  0
    0.9093   -0.7500    0.0000 C   0  0  0  0  0  0  0  0  0  0  0  0
    0.9093   -1.5750    0.0000 C   0  0  0  0  0  0  0  0  0  0  0  0
  1  2  1  0  0  0  0
  3  2  2  0  0  0  0
  4  3  1  0  0  0  0
  4  5  1  0  0  0  0
  5  6  1  0  0  0  0
  5  7  2  0  0  0  0
  8  4  2  0  0  0  0
  9  8  1  0  0  0  0
 10  9  2  0  0  0  0
  2 10  1  0  0  0  0
 10 11  1  0  0  0  0
M  CHG  2   5   1   6  -1
M  END
> <RowID>
1422

> <Original_SMILES>
CC1=CC(=CC=C1C)[N+]([O-])=O

> <Canonical_QSARr>
CC1=CC(=CC=C1C)[N+]([O-])=O

> <InChI_Code_QSARr>
InChI=1S/C8H9NO2/c1-6-3-4-8(9(10)11)5-7(6)2/h3-5H,1-2H3

> <InChI Key_QSARr>
HFZKOYWDLDYELC-UHFFFAOYSA-N

> <Salt_Solvent>


> <Salt_Solvent_ID>
0

> <Number of connected components>
1

$$$$
Molecule_1423
  Mrv2316 01072400032D          

 29 31  0  0  0  0            999 V2000
    2.1434   -5.1918    0.0000 C   0  0  0  0  0  0  0  0  0  0  0  0
    1.4289   -4.7793    0.0000 C   0  0  0  0  0  0  0  0  0  0  0  0
    0.7145   -5.1918    0.0000 O   0  0  0  0  0  0  0  0  0  0  0  0
    1.4289   -3.9543    0.0000 C   0  0  0  0  0  0  0  0  0  0  0  0
    0.7145   -3.5418    0.0000 N   0  0  0  0  0  0  0  0  0  0  0  0
    0.7145   -2.7168    0.0000 N   0  0  0  0  0  0  0  0  0  0  0  0
   -0.0000   -2.3043    0.0000 C   0  0  0  0  0  0  0  0  0  0  0  0
   -0.0000   -1.4793    0.0000 C   0  0  0  0  0  0  0  0  0  0  0  0
   -0.7145   -1.0668    0.0000 C   0  0  0  0  0  0  0  0  0  0  0  0
   -1.4289   -1.4793    0.0000 C   0  0  0  0  0  0  0  0  0  0  0  0
   -1.4289   -2.3043    0.0000 C   0  0  0  0  0  0  0  0  0  0  0  0
   -0.7145   -2.7168    0.0000 C   0  0  0  0  0  0  0  0  0  0  0  0
   -0.7145   -3.5418    0.0000 C   0  0  0  0  0  0  0  0  0  0  0  0
   -0.7145   -4.3668    0.0000 F   0  0  0  0  0  0  0  0  0  0  0  0
    0.1105   -3.5418    0.0000 F   0  0  0  0  0  0  0  0  0  0  0  0
   -1.5395   -3.5418    0.0000 F   0  0  0  0  0  0  0  0  0  0  0  0
    2.1434   -3.5418    0.0000 C   0  0  0  0  0  0  0  0  0  0  0  0
    2.1434   -2.7168    0.0000 O   0  0  0  0  0  0  0  0  0  0  0  0
    2.8579   -3.9543    0.0000 N   0  0  0  0  0  0  0  0  0  0  0  0
    3.5723   -3.5418    0.0000 C   0  0  0  0  0  0  0  0  0  0  0  0
    4.2868   -3.9543    0.0000 C   0  0  0  0  0  0  0  0  0  0  0  0
    5.0013   -3.5418    0.0000 C   0  0  0  0  0  0  0  0  0  0  0  0
    5.7859   -3.7967    0.0000 N   0  0  0  0  0  0  0  0  0  0  0  0
    6.2708   -3.1293    0.0000 C   0  0  0  0  0  0  0  0  0  0  0  0
    7.0958   -3.1293    0.0000 O   0  0  0  0  0  0  0  0  0  0  0  0
    5.7859   -2.4619    0.0000 N   0  0  0  0  0  0  0  0  0  0  0  0
    5.0013   -2.7168    0.0000 C   0  0  0  0  0  0  0  0  0  0  0  0
    4.2868   -2.3043    0.0000 C   0  0  0  0  0  0  0  0  0  0  0  0
    3.5723   -2.7168    0.0000 C   0  0  0  0  0  0  0  0  0  0  0  0
  1  2  1  0  0  0  0
  2  3  2  0  0  0  0
  2  4  1  0  0  0  0
  5  4  1  4  0  0  0
  5  6  2  0  0  0  0
  6  7  1  0  0  0  0
  8  7  2  0  0  0  0
  9  8  1  0  0  0  0
 10  9  2  0  0  0  0
 11 10  1  0  0  0  0
 12 11  2  0  0  0  0
  7 12  1  0  0  0  0
 12 13  1  0  0  0  0
 13 14  1  0  0  0  0
 13 15  1  0  0  0  0
 13 16  1  0  0  0  0
  4 17  1  0  0  0  0
 17 18  2  0  0  0  0
 17 19  1  0  0  0  0
 19 20  1  0  0  0  0
 21 20  2  0  0  0  0
 22 21  1  0  0  0  0
 22 23  1  0  0  0  0
 23 24  1  0  0  0  0
 24 25  2  0  0  0  0
 24 26  1  0  0  0  0
 26 27  1  0  0  0  0
 27 22  2  0  0  0  0
 28 27  1  0  0  0  0
 29 28  2  0  0  0  0
 20 29  1  0  0  0  0
M  END
> <RowID>
1423

> <Original_SMILES>
CC(=O)C(N=NC1=CC=CC=C1C(F)(F)F)C(=O)NC1=CC2NC(=O)NC=2C=C1

> <Canonical_QSARr>
CC(=O)C(N=NC1=CC=CC=C1C(F)(F)F)C(=O)NC1=CC2NC(=O)NC=2C=C1

> <InChI_Code_QSARr>
InChI=1S/C18H14F3N5O3/c1-9(27)15(26-25-12-5-3-2-4-11(12)18(19,20)21)16(28)22-10-6-7-13-14(8-10)24-17(29)23-13/h2-8,15H,1H3,(H,22,28)(H2,23,24,29)

> <InChI Key_QSARr>
VBNVBMNKUIJLPP-UHFFFAOYSA-N

> <Salt_Solvent>


> <Salt_Solvent_ID>
0

> <Number of connected components>
1

$$$$
Molecule_1425
  Mrv2316 01072400032D          

 22 24  0  0  0  0            999 V2000
   -0.7145   -7.0125    0.0000 N   0  0  0  0  0  0  0  0  0  0  0  0
   -0.7145   -6.1875    0.0000 C   0  0  0  0  0  0  0  0  0  0  0  0
   -0.0000   -5.7750    0.0000 C   0  0  0  0  0  0  0  0  0  0  0  0
   -0.0000   -4.9500    0.0000 C   0  0  0  0  0  0  0  0  0  0  0  0
   -0.7145   -4.5375    0.0000 C   0  0  0  0  0  0  0  0  0  0  0  0
   -0.7145   -3.7125    0.0000 C   0  0  0  0  0  0  0  0  0  0  0  0
   -1.4289   -3.3000    0.0000 C   0  0  0  0  0  0  0  0  0  0  0  0
   -1.4289   -2.4750    0.0000 C   0  0  0  0  0  0  0  0  0  0  0  0
   -2.1434   -2.0625    0.0000 C   0  0  0  0  0  0  0  0  0  0  0  0
   -2.8579   -2.4750    0.0000 C   0  0  0  0  0  0  0  0  0  0  0  0
   -3.5724   -2.0625    0.0000 N   0  0  0  0  0  0  0  0  0  0  0  0
   -2.8579   -3.3000    0.0000 C   0  0  0  0  0  0  0  0  0  0  0  0
   -2.1434   -3.7125    0.0000 C   0  0  0  0  0  0  0  0  0  0  0  0
   -0.0000   -3.3000    0.0000 C   0  0  0  0  0  0  0  0  0  0  0  0
    0.7145   -3.7125    0.0000 C   0  0  0  0  0  0  0  0  0  0  0  0
    1.4289   -3.3000    0.0000 C   0  0  0  0  0  0  0  0  0  0  0  0
    1.4289   -2.4750    0.0000 C   0  0  0  0  0  0  0  0  0  0  0  0
    2.1434   -2.0625    0.0000 N   0  0  0  0  0  0  0  0  0  0  0  0
    0.7145   -2.0625    0.0000 C   0  0  0  0  0  0  0  0  0  0  0  0
   -0.0000   -2.4750    0.0000 C   0  0  0  0  0  0  0  0  0  0  0  0
   -1.4289   -4.9500    0.0000 C   0  0  0  0  0  0  0  0  0  0  0  0
   -1.4289   -5.7750    0.0000 C   0  0  0  0  0  0  0  0  0  0  0  0
  1  2  1  0  0  0  0
  3  2  1  0  0  0  0
  4  3  2  0  0  0  0
  5  4  1  0  0  0  0
  5  6  1  0  0  0  0
  6  7  1  0  0  0  0
  8  7  1  0  0  0  0
  9  8  2  0  0  0  0
 10  9  1  0  0  0  0
 10 11  1  0  0  0  0
 12 10  2  0  0  0  0
 13 12  1  0  0  0  0
  7 13  2  0  0  0  0
  6 14  1  0  0  0  0
 15 14  1  0  0  0  0
 16 15  2  0  0  0  0
 17 16  1  0  0  0  0
 17 18  1  0  0  0  0
 19 17  2  0  0  0  0
 20 19  1  0  0  0  0
 14 20  2  0  0  0  0
 21  5  2  0  0  0  0
 22 21  1  0  0  0  0
  2 22  2  0  0  0  0
M  END
> <RowID>
1425

> <Original_SMILES>
NC1C=CC(=CC=1)C(C1C=CC(N)=CC=1)C1C=CC(N)=CC=1

> <Canonical_QSARr>
NC1C=CC(=CC=1)C(C1C=CC(N)=CC=1)C1C=CC(N)=CC=1

> <InChI_Code_QSARr>
InChI=1S/C19H19N3/c20-16-7-1-13(2-8-16)19(14-3-9-17(21)10-4-14)15-5-11-18(22)12-6-15/h1-12,19H,20-22H2

> <InChI Key_QSARr>
ADUMIBSPEHFSLA-UHFFFAOYSA-N

> <Salt_Solvent>


> <Salt_Solvent_ID>
0

> <Number of connected components>
1

$$$$
Molecule_1427
  Mrv2316 01072400032D          

  9  9  0  0  0  0            999 V2000
    2.1434   -0.4125    0.0000 N   0  0  0  0  0  0  0  0  0  0  0  0
    1.4289   -0.0000    0.0000 C   0  0  0  0  0  0  0  0  0  0  0  0
    1.4289    0.8250    0.0000 N   0  0  0  0  0  0  0  0  0  0  0  0
    0.7145    1.2375    0.0000 C   0  0  0  0  0  0  0  0  0  0  0  0
    0.7145    2.0625    0.0000 N   0  0  0  0  0  0  0  0  0  0  0  0
   -0.0000    0.8250    0.0000 N   0  0  0  0  0  0  0  0  0  0  0  0
   -0.0000    0.0000    0.0000 C   0  0  0  0  0  0  0  0  0  0  0  0
   -0.7145   -0.4125    0.0000 N   0  0  0  0  0  0  0  0  0  0  0  0
    0.7145   -0.4125    0.0000 N   0  0  0  0  0  0  0  0  0  0  0  0
  1  2  1  0  0  0  0
  3  2  1  0  0  0  0
  4  3  2  0  0  0  0
  4  5  1  0  0  0  0
  6  4  1  0  0  0  0
  7  6  2  0  0  0  0
  7  8  1  0  0  0  0
  9  7  1  0  0  0  0
  2  9  2  0  0  0  0
M  END
> <RowID>
1427

> <Original_SMILES>
NC1N=C(N)N=C(N)N=1

> <Canonical_QSARr>
NC1N=C(N)N=C(N)N=1

> <InChI_Code_QSARr>
InChI=1S/C3H6N6/c4-1-7-2(5)9-3(6)8-1/h(H6,4,5,6,7,8,9)

> <InChI Key_QSARr>
JDSHMPZPIAZGSV-UHFFFAOYSA-N

> <Salt_Solvent>


> <Salt_Solvent_ID>
0

> <Number of connected components>
1

$$$$
Molecule_1428
  Mrv2316 01072400032D          

 18 18  0  0  0  0            999 V2000
    2.5956    0.3707    0.0000 C   0  0  0  0  0  0  0  0  0  0  0  0
    2.1831   -0.3438    0.0000 C   0  0  0  0  0  0  0  0  0  0  0  0
    1.7706   -1.0582    0.0000 C   0  0  0  0  0  0  0  0  0  0  0  0
    2.8976   -0.7563    0.0000 C   0  0  0  0  0  0  0  0  0  0  0  0
    2.8976   -1.5813    0.0000 C   0  0  0  0  0  0  0  0  0  0  0  0
    1.4686    0.0687    0.0000 C   0  0  0  0  0  0  0  0  0  0  0  0
    1.4686    0.8938    0.0000 C   0  0  0  0  0  0  0  0  0  0  0  0
    0.7542    1.3063    0.0000 C   0  0  0  0  0  0  0  0  0  0  0  0
    0.7542    2.1313    0.0000 O   0  0  0  0  0  0  0  0  0  0  0  0
    0.0397    0.8938    0.0000 C   0  0  0  0  0  0  0  0  0  0  0  0
   -0.6748    1.3063    0.0000 C   0  0  0  0  0  0  0  0  0  0  0  0
   -0.2623    2.0207    0.0000 C   0  0  0  0  0  0  0  0  0  0  0  0
   -1.0873    0.5918    0.0000 C   0  0  0  0  0  0  0  0  0  0  0  0
   -1.3892    1.7188    0.0000 C   0  0  0  0  0  0  0  0  0  0  0  0
   -2.1037    1.3062    0.0000 C   0  0  0  0  0  0  0  0  0  0  0  0
    0.0397    0.0688    0.0000 C   0  0  0  0  0  0  0  0  0  0  0  0
    0.7542   -0.3438    0.0000 C   0  0  0  0  0  0  0  0  0  0  0  0
    0.7542   -1.1687    0.0000 O   0  0  0  0  0  0  0  0  0  0  0  0
  1  2  1  0  0  0  0
  2  3  1  0  0  0  0
  2  4  1  0  0  0  0
  4  5  1  0  0  0  0
  2  6  1  0  0  0  0
  7  6  1  0  0  0  0
  8  7  2  0  0  0  0
  8  9  1  0  0  0  0
 10  8  1  0  0  0  0
 10 11  1  0  0  0  0
 11 12  1  0  0  0  0
 11 13  1  0  0  0  0
 11 14  1  0  0  0  0
 14 15  1  0  0  0  0
 16 10  2  0  0  0  0
 17 16  1  0  0  0  0
  6 17  2  0  0  0  0
 17 18  1  0  0  0  0
M  END
> <RowID>
1428

> <Original_SMILES>
CC(C)(CC)C1C=C(O)C(=CC=1O)C(C)(C)CC

> <Canonical_QSARr>
CC(C)(CC)C1C=C(O)C(=CC=1O)C(C)(C)CC

> <InChI_Code_QSARr>
InChI=1S/C16H26O2/c1-7-15(3,4)11-9-14(18)12(10-13(11)17)16(5,6)8-2/h9-10,17-18H,7-8H2,1-6H3

> <InChI Key_QSARr>
CZNRFEXEPBITDS-UHFFFAOYSA-N

> <Salt_Solvent>


> <Salt_Solvent_ID>
0

> <Number of connected components>
1

$$$$
Molecule_1429
  Mrv2316 01072400032D          

 54 54  0  0  0  0            999 V2000
    6.7476    7.6083    0.0000 C   0  0  0  0  0  0  0  0  0  0  0  0
    6.7476    6.7833    0.0000 C   0  0  0  0  0  0  0  0  0  0  0  0
    7.4621    6.3708    0.0000 C   0  0  0  0  0  0  0  0  0  0  0  0
    6.0332    6.3708    0.0000 C   0  0  0  0  0  0  0  0  0  0  0  0
    6.0332    5.5458    0.0000 C   0  0  0  0  0  0  0  0  0  0  0  0
    5.3187    5.1333    0.0000 C   0  0  0  0  0  0  0  0  0  0  0  0
    5.3187    4.3083    0.0000 C   0  0  0  0  0  0  0  0  0  0  0  0
    4.6042    3.8958    0.0000 C   0  0  0  0  0  0  0  0  0  0  0  0
    4.6042    3.0708    0.0000 C   0  0  0  0  0  0  0  0  0  0  0  0
    3.8897    2.6583    0.0000 C   0  0  0  0  0  0  0  0  0  0  0  0
    3.8897    1.8333    0.0000 C   0  0  0  0  0  0  0  0  0  0  0  0
    3.1753    1.4208    0.0000 C   0  0  0  0  0  0  0  0  0  0  0  0
    3.1753    0.5958    0.0000 C   0  0  0  0  0  0  0  0  0  0  0  0
    2.4608    0.1833    0.0000 O   0  0  0  0  0  0  0  0  0  0  0  0
    2.4608   -0.6417    0.0000 C   0  0  0  0  0  0  0  0  0  0  0  0
    3.1753   -1.0542    0.0000 O   0  0  0  0  0  0  0  0  0  0  0  0
    1.7463   -1.0542    0.0000 C   0  0  0  0  0  0  0  0  0  0  0  0
    1.0319   -0.6417    0.0000 C   0  0  0  0  0  0  0  0  0  0  0  0
    0.3174   -1.0542    0.0000 C   0  0  0  0  0  0  0  0  0  0  0  0
   -0.3971   -0.6417    0.0000 C   0  0  0  0  0  0  0  0  0  0  0  0
   -0.3971    0.1833    0.0000 O   0  0  0  0  0  0  0  0  0  0  0  0
   -1.1116   -1.0542    0.0000 O   0  0  0  0  0  0  0  0  0  0  0  0
   -1.8260   -0.6417    0.0000 C   0  0  0  0  0  0  0  0  0  0  0  0
   -2.5405   -1.0542    0.0000 C   0  0  0  0  0  0  0  0  0  0  0  0
   -3.2550   -0.6417    0.0000 C   0  0  0  0  0  0  0  0  0  0  0  0
   -3.9694   -1.0542    0.0000 C   0  0  0  0  0  0  0  0  0  0  0  0
   -4.6839   -0.6417    0.0000 C   0  0  0  0  0  0  0  0  0  0  0  0
   -5.3984   -1.0542    0.0000 C   0  0  0  0  0  0  0  0  0  0  0  0
   -6.1129   -0.6417    0.0000 C   0  0  0  0  0  0  0  0  0  0  0  0
   -6.8273   -1.0542    0.0000 C   0  0  0  0  0  0  0  0  0  0  0  0
   -7.5418   -0.6417    0.0000 C   0  0  0  0  0  0  0  0  0  0  0  0
   -8.2563   -1.0542    0.0000 C   0  0  0  0  0  0  0  0  0  0  0  0
   -8.9707   -0.6417    0.0000 C   0  0  0  0  0  0  0  0  0  0  0  0
   -9.6852   -1.0542    0.0000 C   0  0  0  0  0  0  0  0  0  0  0  0
   -8.9707    0.1833    0.0000 C   0  0  0  0  0  0  0  0  0  0  0  0
    0.3174   -1.8792    0.0000 C   0  0  0  0  0  0  0  0  0  0  0  0
    1.0319   -2.2917    0.0000 C   0  0  0  0  0  0  0  0  0  0  0  0
    1.7463   -1.8792    0.0000 C   0  0  0  0  0  0  0  0  0  0  0  0
    2.4608   -2.2917    0.0000 C   0  0  0  0  0  0  0  0  0  0  0  0
    2.4608   -3.1167    0.0000 O   0  0  0  0  0  0  0  0  0  0  0  0
    3.1753   -1.8792    0.0000 O   0  0  0  0  0  0  0  0  0  0  0  0
    3.8897   -2.2917    0.0000 C   0  0  0  0  0  0  0  0  0  0  0  0
    4.6042   -1.8792    0.0000 C   0  0  0  0  0  0  0  0  0  0  0  0
    5.3187   -2.2917    0.0000 C   0  0  0  0  0  0  0  0  0  0  0  0
    6.0332   -1.8792    0.0000 C   0  0  0  0  0  0  0  0  0  0  0  0
    6.7476   -2.2917    0.0000 C   0  0  0  0  0  0  0  0  0  0  0  0
    7.4621   -1.8792    0.0000 C   0  0  0  0  0  0  0  0  0  0  0  0
    8.1766   -2.2917    0.0000 C   0  0  0  0  0  0  0  0  0  0  0  0
    8.8910   -1.8792    0.0000 C   0  0  0  0  0  0  0  0  0  0  0  0
    9.6055   -2.2917    0.0000 C   0  0  0  0  0  0  0  0  0  0  0  0
   10.3200   -1.8792    0.0000 C   0  0  0  0  0  0  0  0  0  0  0  0
   11.0345   -2.2917    0.0000 C   0  0  0  0  0  0  0  0  0  0  0  0
   11.7489   -1.8792    0.0000 C   0  0  0  0  0  0  0  0  0  0  0  0
   11.0345   -3.1167    0.0000 C   0  0  0  0  0  0  0  0  0  0  0  0
  1  2  1  0  0  0  0
  2  3  1  0  0  0  0
  2  4  1  0  0  0  0
  4  5  1  0  0  0  0
  5  6  1  0  0  0  0
  6  7  1  0  0  0  0
  7  8  1  0  0  0  0
  8  9  1  0  0  0  0
  9 10  1  0  0  0  0
 10 11  1  0  0  0  0
 11 12  1  0  0  0  0
 12 13  1  0  0  0  0
 13 14  1  0  0  0  0
 14 15  1  0  0  0  0
 15 16  2  0  0  0  0
 15 17  1  0  0  0  0
 18 17  1  0  0  0  0
 19 18  2  0  0  0  0
 19 20  1  0  0  0  0
 20 21  2  0  0  0  0
 20 22  1  0  0  0  0
 22 23  1  0  0  0  0
 23 24  1  0  0  0  0
 24 25  1  0  0  0  0
 25 26  1  0  0  0  0
 26 27  1  0  0  0  0
 27 28  1  0  0  0  0
 28 29  1  0  0  0  0
 29 30  1  0  0  0  0
 30 31  1  0  0  0  0
 31 32  1  0  0  0  0
 32 33  1  0  0  0  0
 33 34  1  0  0  0  0
 33 35  1  0  0  0  0
 36 19  1  0  0  0  0
 37 36  2  0  0  0  0
 38 37  1  0  0  0  0
 17 38  2  0  0  0  0
 38 39  1  0  0  0  0
 39 40  2  0  0  0  0
 39 41  1  0  0  0  0
 41 42  1  0  0  0  0
 42 43  1  0  0  0  0
 43 44  1  0  0  0  0
 44 45  1  0  0  0  0
 45 46  1  0  0  0  0
 46 47  1  0  0  0  0
 47 48  1  0  0  0  0
 48 49  1  0  0  0  0
 49 50  1  0  0  0  0
 50 51  1  0  0  0  0
 51 52  1  0  0  0  0
 52 53  1  0  0  0  0
 52 54  1  0  0  0  0
M  END
> <RowID>
1429

> <Original_SMILES>
CC(C)CCCCCCCCCCOC(=O)C1C=C(C=CC=1C(=O)OCCCCCCCCCCC(C)C)C(=O)OCCCCCCCCCCC(C)C

> <Canonical_QSARr>
CC(C)CCCCCCCCCCOC(=O)C1C=C(C=CC=1C(=O)OCCCCCCCCCCC(C)C)C(=O)OCCCCCCCCCCC(C)C

> <InChI_Code_QSARr>
InChI=1S/C48H84O6/c1-40(2)31-25-19-13-7-10-16-22-28-36-52-46(49)43-34-35-44(47(50)53-37-29-23-17-11-8-14-20-26-32-41(3)4)45(39-43)48(51)54-38-30-24-18-12-9-15-21-27-33-42(5)6/h34-35,39-42H,7-33,36-38H2,1-6H3

> <InChI Key_QSARr>
IGQFKXMQIMEIJV-UHFFFAOYSA-N

> <Salt_Solvent>


> <Salt_Solvent_ID>
0

> <Number of connected components>
1

$$$$
Molecule_1430
  Mrv2316 01072400032D          

 16 18  0  0  0  0            999 V2000
    0.0000   -1.6500    0.0000 N   0  0  0  0  0  0  0  0  0  0  0  0
    0.7145   -1.2375    0.0000 C   0  0  0  0  0  0  0  0  0  0  0  0
    0.7145   -0.4125    0.0000 C   0  0  0  0  0  0  0  0  0  0  0  0
    1.4289    0.0000    0.0000 C   0  0  0  0  0  0  0  0  0  0  0  0
    2.1434   -0.4125    0.0000 C   0  0  0  0  0  0  0  0  0  0  0  0
    2.1434   -1.2375    0.0000 C   0  0  0  0  0  0  0  0  0  0  0  0
    2.8579   -1.6500    0.0000 C   0  0  0  0  0  0  0  0  0  0  0  0
    3.5724   -1.2375    0.0000 C   0  0  0  0  0  0  0  0  0  0  0  0
    4.2868   -1.6500    0.0000 O   0  0  0  0  0  0  0  0  0  0  0  0
    3.5724   -0.4125    0.0000 N   0  0  0  0  0  0  0  0  0  0  0  0
    2.8579   -0.0000    0.0000 C   0  0  0  0  0  0  0  0  0  0  0  0
    2.8579    0.8250    0.0000 O   0  0  0  0  0  0  0  0  0  0  0  0
    2.8579   -2.4750    0.0000 C   0  0  0  0  0  0  0  0  0  0  0  0
    2.1434   -2.8875    0.0000 C   0  0  0  0  0  0  0  0  0  0  0  0
    1.4289   -2.4750    0.0000 C   0  0  0  0  0  0  0  0  0  0  0  0
    1.4289   -1.6500    0.0000 C   0  0  0  0  0  0  0  0  0  0  0  0
  1  2  1  0  0  0  0
  3  2  2  0  0  0  0
  4  3  1  0  0  0  0
  5  4  2  0  0  0  0
  5  6  1  0  0  0  0
  6  7  2  0  0  0  0
  7  8  1  0  0  0  0
  8  9  2  0  0  0  0
  8 10  1  0  0  0  0
 10 11  1  0  0  0  0
 11  5  1  0  0  0  0
 11 12  2  0  0  0  0
  7 13  1  0  0  0  0
 13 14  2  0  0  0  0
 14 15  1  0  0  0  0
 15 16  2  0  0  0  0
  2 16  1  0  0  0  0
 16  6  1  0  0  0  0
M  END
> <RowID>
1430

> <Original_SMILES>
NC1=CC=C2C3C1=CC=CC=3C(=O)NC2=O

> <Canonical_QSARr>
NC1=CC=C2C3C1=CC=CC=3C(=O)NC2=O

> <InChI_Code_QSARr>
InChI=1S/C12H8N2O2/c13-9-5-4-8-10-6(9)2-1-3-7(10)11(15)14-12(8)16/h1-5H,13H2,(H,14,15,16)

> <InChI Key_QSARr>
SSMIFVHARFVINF-UHFFFAOYSA-N

> <Salt_Solvent>


> <Salt_Solvent_ID>
0

> <Number of connected components>
1

$$$$
Molecule_1431
  Mrv2316 01072400032D          

  9  9  0  0  0  0            999 V2000
    1.4289    2.4750    0.0000 O   0  5  0  0  0  0  0  0  0  0  0  0
    0.7145    2.0625    0.0000 N   0  3  0  0  0  0  0  0  0  0  0  0
   -0.0000    2.4750    0.0000 O   0  0  0  0  0  0  0  0  0  0  0  0
    0.7145    1.2375    0.0000 C   0  0  0  0  0  0  0  0  0  0  0  0
   -0.0000    0.8250    0.0000 C   0  0  0  0  0  0  0  0  0  0  0  0
   -0.0000   -0.0000    0.0000 C   0  0  0  0  0  0  0  0  0  0  0  0
    0.7145   -0.4125    0.0000 C   0  0  0  0  0  0  0  0  0  0  0  0
    1.4289    0.0000    0.0000 C   0  0  0  0  0  0  0  0  0  0  0  0
    1.4289    0.8250    0.0000 C   0  0  0  0  0  0  0  0  0  0  0  0
  1  2  1  0  0  0  0
  2  3  2  0  0  0  0
  2  4  1  0  0  0  0
  5  4  1  0  0  0  0
  6  5  2  0  0  0  0
  7  6  1  0  0  0  0
  8  7  2  0  0  0  0
  9  8  1  0  0  0  0
  4  9  2  0  0  0  0
M  CHG  2   1  -1   2   1
M  END
> <RowID>
1431

> <Original_SMILES>
[O-][N+](=O)C1C=CC=CC=1

> <Canonical_QSARr>
[O-][N+](=O)C1C=CC=CC=1

> <InChI_Code_QSARr>
InChI=1S/C6H5NO2/c8-7(9)6-4-2-1-3-5-6/h1-5H

> <InChI Key_QSARr>
LQNUZADURLCDLV-UHFFFAOYSA-N

> <Salt_Solvent>


> <Salt_Solvent_ID>
0

> <Number of connected components>
1

$$$$
Molecule_1432
  Mrv2316 01072400032D          

 12 12  0  0  0  0            999 V2000
   -0.0000   -1.6500    0.0000 O   0  0  0  0  0  0  0  0  0  0  0  0
    0.7145   -1.2375    0.0000 C   0  0  0  0  0  0  0  0  0  0  0  0
    1.4289   -1.6500    0.0000 O   0  0  0  0  0  0  0  0  0  0  0  0
    0.7145   -0.4125    0.0000 C   0  0  0  0  0  0  0  0  0  0  0  0
    1.4289    0.0000    0.0000 C   0  0  0  0  0  0  0  0  0  0  0  0
    1.4289    0.8250    0.0000 C   0  0  0  0  0  0  0  0  0  0  0  0
    0.7145    1.2375    0.0000 C   0  0  0  0  0  0  0  0  0  0  0  0
    0.7145    2.0625    0.0000 C   0  0  0  0  0  0  0  0  0  0  0  0
   -0.0000    2.4750    0.0000 O   0  0  0  0  0  0  0  0  0  0  0  0
    1.4289    2.4750    0.0000 O   0  0  0  0  0  0  0  0  0  0  0  0
   -0.0000    0.8250    0.0000 C   0  0  0  0  0  0  0  0  0  0  0  0
   -0.0000    0.0000    0.0000 C   0  0  0  0  0  0  0  0  0  0  0  0
  1  2  1  0  0  0  0
  2  3  2  0  0  0  0
  2  4  1  0  0  0  0
  5  4  1  0  0  0  0
  6  5  2  0  0  0  0
  7  6  1  0  0  0  0
  7  8  1  0  0  0  0
  8  9  1  0  0  0  0
  8 10  2  0  0  0  0
 11  7  2  0  0  0  0
 12 11  1  0  0  0  0
  4 12  2  0  0  0  0
M  END
> <RowID>
1432

> <Original_SMILES>
OC(=O)C1C=CC(=CC=1)C(O)=O

> <Canonical_QSARr>
OC(=O)C1C=CC(=CC=1)C(O)=O

> <InChI_Code_QSARr>
InChI=1S/C8H6O4/c9-7(10)5-1-2-6(4-3-5)8(11)12/h1-4H,(H,9,10)(H,11,12)

> <InChI Key_QSARr>
KKEYFWRCBNTPAC-UHFFFAOYSA-N

> <Salt_Solvent>


> <Salt_Solvent_ID>
0

> <Number of connected components>
1

$$$$
Molecule_1433
  Mrv2316 01072400032D          

 28 30  0  0  0  0            999 V2000
   -0.2426   -0.5421    0.0000 C   0  0  0  0  0  0  0  0  0  0  0  0
    0.5420   -0.2872    0.0000 N   0  0  0  0  0  0  0  0  0  0  0  0
    1.1551   -0.8392    0.0000 N   0  0  0  0  0  0  0  0  0  0  0  0
    1.9397   -0.5843    0.0000 C   0  0  0  0  0  0  0  0  0  0  0  0
    2.5528   -1.1363    0.0000 C   0  0  0  0  0  0  0  0  0  0  0  0
    3.3374   -0.8814    0.0000 C   0  0  0  0  0  0  0  0  0  0  0  0
    3.9505   -1.4334    0.0000 S   0  0  0  0  0  0  0  0  0  0  0  0
    4.5636   -1.9854    0.0000 N   0  0  0  0  0  0  0  0  0  0  0  0
    5.3482   -1.7305    0.0000 C   0  0  0  0  0  0  0  0  0  0  0  0
    4.5025   -0.8203    0.0000 O   0  0  0  0  0  0  0  0  0  0  0  0
    3.3985   -2.0465    0.0000 O   0  0  0  0  0  0  0  0  0  0  0  0
    3.5089   -0.0744    0.0000 C   0  0  0  0  0  0  0  0  0  0  0  0
    2.8958    0.4777    0.0000 C   0  0  0  0  0  0  0  0  0  0  0  0
    2.1112    0.2227    0.0000 C   0  0  0  0  0  0  0  0  0  0  0  0
    1.4981    0.7747    0.0000 O   0  0  0  0  0  0  0  0  0  0  0  0
   -0.9101   -0.0572    0.0000 C   0  0  0  0  0  0  0  0  0  0  0  0
   -0.9101    0.7678    0.0000 O   0  0  0  0  0  0  0  0  0  0  0  0
   -1.5775   -0.5421    0.0000 N   0  0  0  0  0  0  0  0  0  0  0  0
   -2.3621   -0.2872    0.0000 C   0  0  0  0  0  0  0  0  0  0  0  0
   -2.5337    0.5198    0.0000 C   0  0  0  0  0  0  0  0  0  0  0  0
   -3.3183    0.7747    0.0000 C   0  0  0  0  0  0  0  0  0  0  0  0
   -3.9314    0.2227    0.0000 C   0  0  0  0  0  0  0  0  0  0  0  0
   -3.7599   -0.5843    0.0000 C   0  0  0  0  0  0  0  0  0  0  0  0
   -4.3730   -1.1363    0.0000 Cl  0  0  0  0  0  0  0  0  0  0  0  0
   -2.9752   -0.8392    0.0000 C   0  0  0  0  0  0  0  0  0  0  0  0
   -1.3226   -1.3267    0.0000 N   0  0  0  0  0  0  0  0  0  0  0  0
   -0.4976   -1.3267    0.0000 C   0  0  0  0  0  0  0  0  0  0  0  0
   -0.0127   -1.9942    0.0000 C   0  0  0  0  0  0  0  0  0  0  0  0
  2  1  1  4  0  0  0
  2  3  2  0  0  0  0
  3  4  1  0  0  0  0
  5  4  1  0  0  0  0
  6  5  2  0  0  0  0
  6  7  1  0  0  0  0
  7  8  1  0  0  0  0
  8  9  1  0  0  0  0
  7 10  2  0  0  0  0
  7 11  2  0  0  0  0
 12  6  1  0  0  0  0
 13 12  2  0  0  0  0
 14 13  1  0  0  0  0
  4 14  2  0  0  0  0
 14 15  1  0  0  0  0
 16  1  1  0  0  0  0
 16 17  2  0  0  0  0
 18 16  1  0  0  0  0
 18 19  1  0  0  0  0
 20 19  2  0  0  0  0
 21 20  1  0  0  0  0
 22 21  2  0  0  0  0
 23 22  1  0  0  0  0
 23 24  1  0  0  0  0
 25 23  2  0  0  0  0
 19 25  1  0  0  0  0
 26 18  1  0  0  0  0
 27 26  2  0  0  0  0
  1 27  1  0  0  0  0
 27 28  1  0  0  0  0
M  END
> <RowID>
1433

> <Original_SMILES>
[Na+].[Co+3].CC1=NN(C2=CC(Cl)=CC=C2)C(=O)[C-]1N=NC1=CC(=CC=C1[O-])S(=O)(=O)NC.CC1=NN(C2=CC(Cl)=CC=C2)C(=O)[C-]1N=NC1=CC(=CC=C1[O-])S(=O)(=O)NC

> <Canonical_QSARr>
CC1=NN(C2C=C(Cl)C=CC=2)C(=O)C1N=NC1C=C(C=CC=1O)S(=O)(=O)NC

> <InChI_Code_QSARr>
InChI=1S/C17H16ClN5O4S/c1-10-16(17(25)23(22-10)12-5-3-4-11(18)8-12)21-20-14-9-13(6-7-15(14)24)28(26,27)19-2/h3-9,16,19,24H,1-2H3

> <InChI Key_QSARr>
OEXFOCUVCQCIRJ-UHFFFAOYSA-N

> <Salt_Solvent>
[Na+].[Co+3]

> <Salt_Solvent_ID>
190

> <Number of connected components>
4

$$$$
Molecule_1434
  Mrv2316 01072400032D          

  7  6  0  0  0  0            999 V2000
    2.4750   -0.0000    0.0000 C   0  0  0  0  0  0  0  0  0  0  0  0
    2.0625    0.7145    0.0000 O   0  0  0  0  0  0  0  0  0  0  0  0
    1.2375    0.7145    0.0000 B   0  0  0  0  0  0  0  0  0  0  0  0
    0.8250    1.4289    0.0000 O   0  0  0  0  0  0  0  0  0  0  0  0
    0.0000    1.4289    0.0000 C   0  0  0  0  0  0  0  0  0  0  0  0
    0.8250   -0.0000    0.0000 O   0  0  0  0  0  0  0  0  0  0  0  0
    0.0000   -0.0000    0.0000 C   0  0  0  0  0  0  0  0  0  0  0  0
  1  2  1  0  0  0  0
  2  3  1  0  0  0  0
  3  4  1  0  0  0  0
  4  5  1  0  0  0  0
  3  6  1  0  0  0  0
  6  7  1  0  0  0  0
M  END
> <RowID>
1434

> <Original_SMILES>
COB(OC)OC

> <Canonical_QSARr>
COB(OC)OC

> <InChI_Code_QSARr>
InChI=1S/C3H9BO3/c1-5-4(6-2)7-3/h1-3H3

> <InChI Key_QSARr>
WRECIMRULFAWHA-UHFFFAOYSA-N

> <Salt_Solvent>


> <Salt_Solvent_ID>
0

> <Number of connected components>
1

$$$$
Molecule_1435
  Mrv2316 01072400032D          

 12 12  0  0  0  0            999 V2000
    2.1434   -1.2375    0.0000 O   0  0  0  0  0  0  0  0  0  0  0  0
    2.1434   -0.4125    0.0000 C   0  0  0  0  0  0  0  0  0  0  0  0
    2.8579   -0.0000    0.0000 Cl  0  0  0  0  0  0  0  0  0  0  0  0
    1.4289   -0.0000    0.0000 C   0  0  0  0  0  0  0  0  0  0  0  0
    1.4289    0.8250    0.0000 C   0  0  0  0  0  0  0  0  0  0  0  0
    0.7145    1.2375    0.0000 C   0  0  0  0  0  0  0  0  0  0  0  0
    0.7145    2.0625    0.0000 C   0  0  0  0  0  0  0  0  0  0  0  0
   -0.0000    2.4750    0.0000 O   0  0  0  0  0  0  0  0  0  0  0  0
    1.4289    2.4750    0.0000 Cl  0  0  0  0  0  0  0  0  0  0  0  0
   -0.0000    0.8250    0.0000 C   0  0  0  0  0  0  0  0  0  0  0  0
   -0.0000    0.0000    0.0000 C   0  0  0  0  0  0  0  0  0  0  0  0
    0.7145   -0.4125    0.0000 C   0  0  0  0  0  0  0  0  0  0  0  0
  1  2  2  0  0  0  0
  2  3  1  0  0  0  0
  2  4  1  0  0  0  0
  5  4  1  0  0  0  0
  6  5  2  0  0  0  0
  6  7  1  0  0  0  0
  7  8  2  0  0  0  0
  7  9  1  0  0  0  0
 10  6  1  0  0  0  0
 11 10  2  0  0  0  0
 12 11  1  0  0  0  0
  4 12  2  0  0  0  0
M  END
> <RowID>
1435

> <Original_SMILES>
O=C(Cl)C1C=C(C=CC=1)C(=O)Cl

> <Canonical_QSARr>
O=C(Cl)C1C=C(C=CC=1)C(=O)Cl

> <InChI_Code_QSARr>
InChI=1S/C8H4Cl2O2/c9-7(11)5-2-1-3-6(4-5)8(10)12/h1-4H

> <InChI Key_QSARr>
FDQSRULYDNDXQB-UHFFFAOYSA-N

> <Salt_Solvent>


> <Salt_Solvent_ID>
0

> <Number of connected components>
1

$$$$
Molecule_1436
  Mrv2316 01072400032D          

 11 11  0  0  0  0            999 V2000
   -0.3897    2.4750    0.0000 C   0  0  0  0  0  0  0  0  0  0  0  0
    0.3248    2.0625    0.0000 C   0  0  0  0  0  0  0  0  0  0  0  0
    1.0392    2.4750    0.0000 C   0  0  0  0  0  0  0  0  0  0  0  0
    1.0392    3.3000    0.0000 C   0  0  0  0  0  0  0  0  0  0  0  0
    1.7537    3.7125    0.0000 O   0  0  0  0  0  0  0  0  0  0  0  0
    0.3248    1.2375    0.0000 C   0  0  0  0  0  0  0  0  0  0  0  0
   -0.3897    0.8250    0.0000 C   0  0  0  0  0  0  0  0  0  0  0  0
   -0.3897   -0.0000    0.0000 C   0  0  0  0  0  0  0  0  0  0  0  0
    0.3248   -0.4125    0.0000 C   0  0  0  0  0  0  0  0  0  0  0  0
    1.0392    0.0000    0.0000 C   0  0  0  0  0  0  0  0  0  0  0  0
    1.0392    0.8250    0.0000 C   0  0  0  0  0  0  0  0  0  0  0  0
  1  2  1  0  0  0  0
  2  3  1  0  0  0  0
  3  4  1  0  0  0  0
  4  5  2  0  0  0  0
  2  6  1  0  0  0  0
  7  6  1  0  0  0  0
  8  7  2  0  0  0  0
  9  8  1  0  0  0  0
 10  9  2  0  0  0  0
 11 10  1  0  0  0  0
  6 11  2  0  0  0  0
M  END
> <RowID>
1436

> <Original_SMILES>
CC(CC=O)C1C=CC=CC=1

> <Canonical_QSARr>
CC(CC=O)C1C=CC=CC=1

> <InChI_Code_QSARr>
InChI=1S/C10H12O/c1-9(7-8-11)10-5-3-2-4-6-10/h2-6,8-9H,7H2,1H3

> <InChI Key_QSARr>
MYHGOWDLVRDUFA-UHFFFAOYSA-N

> <Salt_Solvent>


> <Salt_Solvent_ID>
0

> <Number of connected components>
1

$$$$
Molecule_1437
  Mrv2316 01072400032D          

 11 11  0  0  0  0            999 V2000
    2.3383   -0.7500    0.0000 N   0  0  0  0  0  0  0  0  0  0  0  0
    1.6238   -0.3375    0.0000 C   0  0  0  0  0  0  0  0  0  0  0  0
    1.6238    0.4875    0.0000 C   0  0  0  0  0  0  0  0  0  0  0  0
    0.9093    0.9000    0.0000 C   0  0  0  0  0  0  0  0  0  0  0  0
    0.9093    1.7250    0.0000 C   0  0  0  0  0  0  0  0  0  0  0  0
    0.1949    2.1375    0.0000 O   0  0  0  0  0  0  0  0  0  0  0  0
    1.6238    2.1375    0.0000 O   0  0  0  0  0  0  0  0  0  0  0  0
    0.1949    0.4875    0.0000 C   0  0  0  0  0  0  0  0  0  0  0  0
    0.1949   -0.3375    0.0000 C   0  0  0  0  0  0  0  0  0  0  0  0
    0.9093   -0.7500    0.0000 C   0  0  0  0  0  0  0  0  0  0  0  0
    0.9093   -1.5750    0.0000 Cl  0  0  0  0  0  0  0  0  0  0  0  0
  1  2  1  0  0  0  0
  3  2  1  0  0  0  0
  4  3  2  0  0  0  0
  4  5  1  0  0  0  0
  5  6  1  0  0  0  0
  5  7  2  0  0  0  0
  8  4  1  0  0  0  0
  9  8  2  0  0  0  0
 10  9  1  0  0  0  0
  2 10  2  0  0  0  0
 10 11  1  0  0  0  0
M  END
> <RowID>
1437

> <Original_SMILES>
NC1C=C(C=CC=1Cl)C(O)=O

> <Canonical_QSARr>
NC1C=C(C=CC=1Cl)C(O)=O

> <InChI_Code_QSARr>
InChI=1S/C7H6ClNO2/c8-5-2-1-4(7(10)11)3-6(5)9/h1-3H,9H2,(H,10,11)

> <InChI Key_QSARr>
DMGFVJVLVZOSOE-UHFFFAOYSA-N

> <Salt_Solvent>


> <Salt_Solvent_ID>
0

> <Number of connected components>
1

$$$$
Molecule_1438
  Mrv2316 01072400032D          

  5  4  0  0  0  0            999 V2000
    2.0625   -0.7145    0.0000 N   0  0  0  0  0  0  0  0  0  0  0  0
    1.2375   -0.7145    0.0000 C   0  0  0  0  0  0  0  0  0  0  0  0
    0.8250   -1.4289    0.0000 O   0  0  0  0  0  0  0  0  0  0  0  0
    0.8250   -0.0000    0.0000 C   0  0  0  0  0  0  0  0  0  0  0  0
    0.0000   -0.0000    0.0000 Cl  0  0  0  0  0  0  0  0  0  0  0  0
  1  2  1  0  0  0  0
  2  3  2  0  0  0  0
  2  4  1  0  0  0  0
  4  5  1  0  0  0  0
M  END
> <RowID>
1438

> <Original_SMILES>
NC(=O)CCl

> <Canonical_QSARr>
NC(=O)CCl

> <InChI_Code_QSARr>
InChI=1S/C2H4ClNO/c3-1-2(4)5/h1H2,(H2,4,5)

> <InChI Key_QSARr>
VXIVSQZSERGHQP-UHFFFAOYSA-N

> <Salt_Solvent>


> <Salt_Solvent_ID>
0

> <Number of connected components>
1

$$$$
Molecule_1439
  Mrv2316 01072400032D          

 14 13  0  0  0  0            999 V2000
    5.4730    3.9849    0.0000 C   0  0  0  0  0  0  0  0  0  0  0  0
    6.1875    3.5724    0.0000 C   0  0  0  0  0  0  0  0  0  0  0  0
    6.9020    3.9849    0.0000 C   0  0  0  0  0  0  0  0  0  0  0  0
    7.6164    3.5724    0.0000 C   0  0  0  0  0  0  0  0  0  0  0  0
    8.3309    3.9849    0.0000 C   0  0  0  0  0  0  0  0  0  0  0  0
    9.0454    3.5724    0.0000 C   0  0  0  0  0  0  0  0  0  0  0  0
    9.7599    3.9849    0.0000 C   0  0  0  0  0  0  0  0  0  0  0  0
   10.4743    3.5724    0.0000 C   0  0  0  0  0  0  0  0  0  0  0  0
   11.1888    3.9849    0.0000 C   0  0  0  0  0  0  0  0  0  0  0  0
   11.9033    3.5724    0.0000 C   0  0  0  0  0  0  0  0  0  0  0  0
   12.6177    3.9849    0.0000 C   0  0  0  0  0  0  0  0  0  0  0  0
   13.3322    3.5724    0.0000 C   0  0  0  0  0  0  0  0  0  0  0  0
   14.0467    3.9849    0.0000 O   0  0  0  0  0  0  0  0  0  0  0  0
   13.3322    2.7474    0.0000 O   0  0  0  0  0  0  0  0  0  0  0  0
  1  2  1  0  0  0  0
  2  3  1  0  0  0  0
  3  4  1  0  0  0  0
  4  5  1  0  0  0  0
  5  6  1  0  0  0  0
  6  7  1  0  0  0  0
  7  8  1  0  0  0  0
  8  9  1  0  0  0  0
  9 10  1  0  0  0  0
 10 11  1  0  0  0  0
 11 12  1  0  0  0  0
 12 13  1  0  0  0  0
 12 14  2  0  0  0  0
M  END
> <RowID>
1439

> <Original_SMILES>
CCCCCCCCCCCC(O)=O

> <Canonical_QSARr>
CCCCCCCCCCCC(O)=O

> <InChI_Code_QSARr>
InChI=1S/C12H24O2/c1-2-3-4-5-6-7-8-9-10-11-12(13)14/h2-11H2,1H3,(H,13,14)

> <InChI Key_QSARr>
POULHZVOKOAJMA-UHFFFAOYSA-N

> <Salt_Solvent>


> <Salt_Solvent_ID>
0

> <Number of connected components>
1

$$$$
Molecule_1440
  Mrv2316 01072400032D          

 24 26  0  0  0  0            999 V2000
   -0.5954   -7.0125    0.0000 O   0  0  0  0  0  0  0  0  0  0  0  0
   -0.5954   -6.1875    0.0000 S   0  0  0  0  0  0  0  0  0  0  0  0
    0.2296   -6.1875    0.0000 O   0  0  0  0  0  0  0  0  0  0  0  0
   -1.4204   -6.1875    0.0000 O   0  0  0  0  0  0  0  0  0  0  0  0
   -0.5954   -5.3625    0.0000 C   0  0  0  0  0  0  0  0  0  0  0  0
    0.1191   -4.9500    0.0000 C   0  0  0  0  0  0  0  0  0  0  0  0
    0.1191   -4.1250    0.0000 C   0  0  0  0  0  0  0  0  0  0  0  0
   -0.5954   -3.7125    0.0000 C   0  0  0  0  0  0  0  0  0  0  0  0
   -0.5954   -2.8875    0.0000 N   0  0  0  0  0  0  0  0  0  0  0  0
    0.1191   -2.4750    0.0000 N   0  0  0  0  0  0  0  0  0  0  0  0
    0.1191   -1.6500    0.0000 C   0  0  0  0  0  0  0  0  0  0  0  0
    0.8335   -1.2375    0.0000 C   0  0  0  0  0  0  0  0  0  0  0  0
    0.8335   -0.4125    0.0000 C   0  0  0  0  0  0  0  0  0  0  0  0
    1.5480   -0.0000    0.0000 C   0  0  0  0  0  0  0  0  0  0  0  0
    2.2625   -0.4125    0.0000 C   0  0  0  0  0  0  0  0  0  0  0  0
    2.2625   -1.2375    0.0000 C   0  0  0  0  0  0  0  0  0  0  0  0
    1.5480   -1.6500    0.0000 C   0  0  0  0  0  0  0  0  0  0  0  0
    0.1191   -0.0000    0.0000 C   0  0  0  0  0  0  0  0  0  0  0  0
   -0.5954   -0.4125    0.0000 C   0  0  0  0  0  0  0  0  0  0  0  0
   -0.5954   -1.2375    0.0000 C   0  0  0  0  0  0  0  0  0  0  0  0
   -1.3099   -1.6500    0.0000 O   0  0  0  0  0  0  0  0  0  0  0  0
   -1.3099   -4.1250    0.0000 C   0  0  0  0  0  0  0  0  0  0  0  0
   -2.0243   -3.7125    0.0000 C   0  0  0  0  0  0  0  0  0  0  0  0
   -1.3099   -4.9500    0.0000 C   0  0  0  0  0  0  0  0  0  0  0  0
  1  2  1  0  0  0  0
  2  3  2  0  0  0  0
  2  4  2  0  0  0  0
  2  5  1  0  0  0  0
  6  5  1  0  0  0  0
  7  6  2  0  0  0  0
  8  7  1  0  0  0  0
  9  8  1  4  0  0  0
  9 10  2  0  0  0  0
 10 11  1  0  0  0  0
 12 11  1  0  0  0  0
 12 13  1  0  0  0  0
 13 14  2  0  0  0  0
 14 15  1  0  0  0  0
 15 16  2  0  0  0  0
 16 17  1  0  0  0  0
 17 12  2  0  0  0  0
 18 13  1  0  0  0  0
 19 18  2  0  0  0  0
 20 19  1  0  0  0  0
 11 20  2  0  0  0  0
 20 21  1  0  0  0  0
 22  8  2  0  0  0  0
 22 23  1  0  0  0  0
 24 22  1  0  0  0  0
  5 24  2  0  0  0  0
M  END
> <RowID>
1440

> <Original_SMILES>
[Na+].CC1C=C(C=CC=1N=NC1=C(O)C=CC2=CC=CC=C21)S([O-])(=O)=O

> <Canonical_QSARr>
CC1C=C(C=CC=1N=NC1C2=CC=CC=C2C=CC=1O)S(O)(=O)=O

> <InChI_Code_QSARr>
InChI=1S/C17H14N2O4S/c1-11-10-13(24(21,22)23)7-8-15(11)18-19-17-14-5-3-2-4-12(14)6-9-16(17)20/h2-10,20H,1H3,(H,21,22,23)

> <InChI Key_QSARr>
FEACTMUAXQJDBH-UHFFFAOYSA-N

> <Salt_Solvent>
[Na+]

> <Salt_Solvent_ID>
110

> <Number of connected components>
2

$$$$
Molecule_1442
  Mrv2316 01072400032D          

 15 16  0  0  0  0            999 V2000
    2.0005   -1.6500    0.0000 S   0  0  0  0  0  0  0  0  0  0  0  0
    1.2860   -1.2375    0.0000 C   0  0  0  0  0  0  0  0  0  0  0  0
    0.5716   -1.6500    0.0000 S   0  0  0  0  0  0  0  0  0  0  0  0
    0.5716   -2.4750    0.0000 N   0  0  0  0  0  0  0  0  0  0  0  0
   -0.1429   -2.8875    0.0000 C   0  0  0  0  0  0  0  0  0  0  0  0
   -0.1429   -3.7125    0.0000 C   0  0  0  0  0  0  0  0  0  0  0  0
    0.5716   -4.1250    0.0000 O   0  0  0  0  0  0  0  0  0  0  0  0
    1.2860   -3.7125    0.0000 C   0  0  0  0  0  0  0  0  0  0  0  0
    1.2860   -2.8875    0.0000 C   0  0  0  0  0  0  0  0  0  0  0  0
    1.2860   -0.4125    0.0000 N   0  0  0  0  0  0  0  0  0  0  0  0
    2.0005    0.0000    0.0000 C   0  0  0  0  0  0  0  0  0  0  0  0
    2.0005    0.8250    0.0000 C   0  0  0  0  0  0  0  0  0  0  0  0
    1.2860    1.2375    0.0000 O   0  0  0  0  0  0  0  0  0  0  0  0
    0.5716    0.8250    0.0000 C   0  0  0  0  0  0  0  0  0  0  0  0
    0.5716    0.0000    0.0000 C   0  0  0  0  0  0  0  0  0  0  0  0
  1  2  2  0  0  0  0
  2  3  1  0  0  0  0
  3  4  1  0  0  0  0
  5  4  1  0  0  0  0
  6  5  1  0  0  0  0
  7  6  1  0  0  0  0
  8  7  1  0  0  0  0
  9  8  1  0  0  0  0
  4  9  1  0  0  0  0
  2 10  1  0  0  0  0
 11 10  1  0  0  0  0
 12 11  1  0  0  0  0
 13 12  1  0  0  0  0
 14 13  1  0  0  0  0
 15 14  1  0  0  0  0
 10 15  1  0  0  0  0
M  END
> <RowID>
1442

> <Original_SMILES>
S=C(SN1CCOCC1)N1CCOCC1

> <Canonical_QSARr>
S=C(SN1CCOCC1)N1CCOCC1

> <InChI_Code_QSARr>
InChI=1S/C9H16N2O2S2/c14-9(10-1-5-12-6-2-10)15-11-3-7-13-8-4-11/h1-8H2

> <InChI Key_QSARr>
HOEFWOBLOGZQIQ-UHFFFAOYSA-N

> <Salt_Solvent>


> <Salt_Solvent_ID>
0

> <Number of connected components>
1

$$$$
Molecule_1443
  Mrv2316 01072400032D          

 17 18  0  0  0  0            999 V2000
   -2.1434   -5.9449    0.0000 Cl  0  0  0  0  0  0  0  0  0  0  0  0
   -1.4289   -5.5324    0.0000 C   0  0  0  0  0  0  0  0  0  0  0  0
   -0.7145   -5.9449    0.0000 C   0  0  0  0  0  0  0  0  0  0  0  0
   -0.0000   -5.5324    0.0000 C   0  0  0  0  0  0  0  0  0  0  0  0
   -0.0000   -4.7074    0.0000 C   0  0  0  0  0  0  0  0  0  0  0  0
   -0.7145   -4.2949    0.0000 C   0  0  0  0  0  0  0  0  0  0  0  0
   -0.7145   -3.4699    0.0000 N   0  0  0  0  0  0  0  0  0  0  0  0
   -0.0000   -3.0574    0.0000 C   0  0  0  0  0  0  0  0  0  0  0  0
   -0.0000   -2.2324    0.0000 C   0  0  0  0  0  0  0  0  0  0  0  0
   -0.7145   -1.8199    0.0000 N   0  0  0  0  0  0  0  0  0  0  0  0
   -0.7145   -0.9949    0.0000 C   0  0  0  0  0  0  0  0  0  0  0  0
   -1.4289   -0.5824    0.0000 C   0  0  0  0  0  0  0  0  0  0  0  0
   -1.4289    0.2426    0.0000 C   0  0  0  0  0  0  0  0  0  0  0  0
   -2.1434    0.6551    0.0000 Cl  0  0  0  0  0  0  0  0  0  0  0  0
   -1.4289   -2.2324    0.0000 C   0  0  0  0  0  0  0  0  0  0  0  0
   -1.4289   -3.0574    0.0000 C   0  0  0  0  0  0  0  0  0  0  0  0
   -1.4289   -4.7074    0.0000 C   0  0  0  0  0  0  0  0  0  0  0  0
  1  2  1  0  0  0  0
  3  2  2  0  0  0  0
  4  3  1  0  0  0  0
  5  4  2  0  0  0  0
  6  5  1  0  0  0  0
  6  7  1  0  0  0  0
  8  7  1  0  0  0  0
  9  8  1  0  0  0  0
 10  9  1  0  0  0  0
 10 11  1  0  0  0  0
 11 12  1  0  0  0  0
 12 13  1  0  0  0  0
 13 14  1  0  0  0  0
 15 10  1  0  0  0  0
 16 15  1  0  0  0  0
  7 16  1  0  0  0  0
 17  6  2  0  0  0  0
  2 17  1  0  0  0  0
M  END
> <RowID>
1443

> <Original_SMILES>
Cl.ClC1C=C(C=CC=1)N1CCN(CCCCl)CC1

> <Canonical_QSARr>
ClC1C=C(C=CC=1)N1CCN(CCCCl)CC1

> <InChI_Code_QSARr>
InChI=1S/C13H18Cl2N2/c14-5-2-6-16-7-9-17(10-8-16)13-4-1-3-12(15)11-13/h1,3-4,11H,2,5-10H2

> <InChI Key_QSARr>
NDQKGEFMUGSRNS-UHFFFAOYSA-N

> <Salt_Solvent>
Cl

> <Salt_Solvent_ID>
170

> <Number of connected components>
2

$$$$
Molecule_1444
  Mrv2316 01072400032D          

 15 15  0  0  0  0            999 V2000
   -1.5371   -0.1346    0.0000 C   0  0  0  0  0  0  0  0  0  0  0  0
   -0.7525   -0.3896    0.0000 C   0  0  0  0  0  0  0  0  0  0  0  0
   -0.5810   -1.1966    0.0000 O   0  0  0  0  0  0  0  0  0  0  0  0
   -0.1394    0.1624    0.0000 C   0  0  0  0  0  0  0  0  0  0  0  0
   -0.3109    0.9694    0.0000 C   0  0  0  0  0  0  0  0  0  0  0  0
    0.6452   -0.0925    0.0000 C   0  0  0  0  0  0  0  0  0  0  0  0
    1.2583    0.4595    0.0000 C   0  0  0  0  0  0  0  0  0  0  0  0
    2.0429    0.2046    0.0000 C   0  0  0  0  0  0  0  0  0  0  0  0
    2.2979   -0.5800    0.0000 C   0  0  0  0  0  0  0  0  0  0  0  0
    3.1229   -0.5800    0.0000 C   0  0  0  0  0  0  0  0  0  0  0  0
    3.3778    0.2046    0.0000 C   0  0  0  0  0  0  0  0  0  0  0  0
    4.1624    0.4595    0.0000 C   0  0  0  0  0  0  0  0  0  0  0  0
    2.7104    0.6895    0.0000 C   0  0  0  0  0  0  0  0  0  0  0  0
    3.1154    1.4083    0.0000 C   0  0  0  0  0  0  0  0  0  0  0  0
    2.3054    1.4083    0.0000 C   0  0  0  0  0  0  0  0  0  0  0  0
  1  2  1  0  0  0  0
  2  3  2  0  0  0  0
  2  4  1  0  0  0  0
  4  5  1  0  0  0  0
  4  6  2  0  0  0  0
  6  7  1  4  0  0  0
  7  8  1  0  0  0  0
  9  8  1  0  0  0  0
 10  9  1  0  0  0  0
 11 10  2  0  0  0  0
 11 12  1  0  0  0  0
 13 11  1  0  0  0  0
  8 13  1  0  0  0  0
 13 14  1  0  0  0  0
 13 15  1  0  0  0  0
M  END
> <RowID>
1444

> <Original_SMILES>
CC(=O)C(C)=CCC1CC=C(C)C1(C)C

> <Canonical_QSARr>
CC(=O)C(C)=CCC1CC=C(C)C1(C)C

> <InChI_Code_QSARr>
InChI=1S/C14H22O/c1-10(12(3)15)6-8-13-9-7-11(2)14(13,4)5/h6-7,13H,8-9H2,1-5H3

> <InChI Key_QSARr>
QQUWZMIGSXXJFV-UHFFFAOYSA-N

> <Salt_Solvent>


> <Salt_Solvent_ID>
0

> <Number of connected components>
1

$$$$
Molecule_1445
  Mrv2316 01072400032D          

 30 29  0  0  0  0            999 V2000
   13.4228    8.5744    0.0000 C   0  0  0  0  0  0  0  0  0  0  0  0
   14.1372    8.9869    0.0000 C   0  0  0  0  0  0  0  0  0  0  0  0
   14.8517    8.5744    0.0000 C   0  0  0  0  0  0  0  0  0  0  0  0
   15.5662    8.9869    0.0000 C   0  0  0  0  0  0  0  0  0  0  0  0
   16.2807    8.5744    0.0000 O   0  0  0  0  0  0  0  0  0  0  0  0
   16.9951    8.9869    0.0000 C   0  0  0  0  0  0  0  0  0  0  0  0
   17.7096    8.5744    0.0000 C   0  0  0  0  0  0  0  0  0  0  0  0
   18.4241    8.9869    0.0000 O   0  0  0  0  0  0  0  0  0  0  0  0
   19.1385    8.5744    0.0000 C   0  0  0  0  0  0  0  0  0  0  0  0
   19.8530    8.9869    0.0000 C   0  0  0  0  0  0  0  0  0  0  0  0
   20.5675    8.5744    0.0000 O   0  0  0  0  0  0  0  0  0  0  0  0
   21.2820    8.9869    0.0000 C   0  0  0  0  0  0  0  0  0  0  0  0
   21.2820    9.8119    0.0000 O   0  0  0  0  0  0  0  0  0  0  0  0
   21.9964    8.5744    0.0000 C   0  0  0  0  0  0  0  0  0  0  0  0
   22.7109    8.9869    0.0000 C   0  0  0  0  0  0  0  0  0  0  0  0
   23.4254    8.5744    0.0000 C   0  0  0  0  0  0  0  0  0  0  0  0
   24.1398    8.9869    0.0000 C   0  0  0  0  0  0  0  0  0  0  0  0
   24.8543    8.5744    0.0000 C   0  0  0  0  0  0  0  0  0  0  0  0
   24.8543    7.7494    0.0000 O   0  0  0  0  0  0  0  0  0  0  0  0
   25.5688    8.9869    0.0000 O   0  0  0  0  0  0  0  0  0  0  0  0
   26.2832    8.5744    0.0000 C   0  0  0  0  0  0  0  0  0  0  0  0
   26.9977    8.9869    0.0000 C   0  0  0  0  0  0  0  0  0  0  0  0
   27.7122    8.5744    0.0000 O   0  0  0  0  0  0  0  0  0  0  0  0
   28.4267    8.9869    0.0000 C   0  0  0  0  0  0  0  0  0  0  0  0
   29.1411    8.5744    0.0000 C   0  0  0  0  0  0  0  0  0  0  0  0
   29.8556    8.9869    0.0000 O   0  0  0  0  0  0  0  0  0  0  0  0
   30.5701    8.5744    0.0000 C   0  0  0  0  0  0  0  0  0  0  0  0
   31.2845    8.9869    0.0000 C   0  0  0  0  0  0  0  0  0  0  0  0
   31.9990    8.5744    0.0000 C   0  0  0  0  0  0  0  0  0  0  0  0
   32.7135    8.9869    0.0000 C   0  0  0  0  0  0  0  0  0  0  0  0
  1  2  1  0  0  0  0
  2  3  1  0  0  0  0
  3  4  1  0  0  0  0
  4  5  1  0  0  0  0
  5  6  1  0  0  0  0
  6  7  1  0  0  0  0
  7  8  1  0  0  0  0
  8  9  1  0  0  0  0
  9 10  1  0  0  0  0
 10 11  1  0  0  0  0
 11 12  1  0  0  0  0
 12 13  2  0  0  0  0
 12 14  1  0  0  0  0
 14 15  1  0  0  0  0
 15 16  1  0  0  0  0
 16 17  1  0  0  0  0
 17 18  1  0  0  0  0
 18 19  2  0  0  0  0
 18 20  1  0  0  0  0
 20 21  1  0  0  0  0
 21 22  1  0  0  0  0
 22 23  1  0  0  0  0
 23 24  1  0  0  0  0
 24 25  1  0  0  0  0
 25 26  1  0  0  0  0
 26 27  1  0  0  0  0
 27 28  1  0  0  0  0
 28 29  1  0  0  0  0
 29 30  1  0  0  0  0
M  END
> <RowID>
1445

> <Original_SMILES>
CCCCOCCOCCOC(=O)CCCCC(=O)OCCOCCOCCCC

> <Canonical_QSARr>
CCCCOCCOCCOC(=O)CCCCC(=O)OCCOCCOCCCC

> <InChI_Code_QSARr>
InChI=1S/C22H42O8/c1-3-5-11-25-13-15-27-17-19-29-21(23)9-7-8-10-22(24)30-20-18-28-16-14-26-12-6-4-2/h3-20H2,1-2H3

> <InChI Key_QSARr>
SCABKEBYDRTODC-UHFFFAOYSA-N

> <Salt_Solvent>


> <Salt_Solvent_ID>
0

> <Number of connected components>
1

$$$$
Molecule_1446
  Mrv2316 01072400032D          

 68 73  0  0  0  0            999 V2000
    0.3545   -5.1003    0.0000 O   0  0  0  0  0  0  0  0  0  0  0  0
    0.7670   -4.3858    0.0000 S   0  0  0  0  0  0  0  0  0  0  0  0
    0.0525   -3.9733    0.0000 O   0  0  0  0  0  0  0  0  0  0  0  0
    1.1795   -3.6713    0.0000 O   0  0  0  0  0  0  0  0  0  0  0  0
    1.4815   -4.7983    0.0000 C   0  0  0  0  0  0  0  0  0  0  0  0
    2.1959   -4.3858    0.0000 C   0  0  0  0  0  0  0  0  0  0  0  0
    2.1959   -3.5608    0.0000 C   0  0  0  0  0  0  0  0  0  0  0  0
    1.4815   -3.1483    0.0000 C   0  0  0  0  0  0  0  0  0  0  0  0
    1.4815   -2.3233    0.0000 C   0  0  0  0  0  0  0  0  0  0  0  0
    2.1959   -1.9108    0.0000 C   0  0  0  0  0  0  0  0  0  0  0  0
    2.9104   -2.3233    0.0000 S   0  0  0  0  0  0  0  0  0  0  0  0
    3.6249   -2.7358    0.0000 O   0  0  0  0  0  0  0  0  0  0  0  0
    3.3229   -1.6088    0.0000 O   0  0  0  0  0  0  0  0  0  0  0  0
    2.4979   -3.0378    0.0000 O   0  0  0  0  0  0  0  0  0  0  0  0
    2.1959   -1.0858    0.0000 C   0  0  0  0  0  0  0  0  0  0  0  0
    1.4815   -0.6733    0.0000 C   0  0  0  0  0  0  0  0  0  0  0  0
    1.4815    0.1517    0.0000 N   0  0  0  0  0  0  0  0  0  0  0  0
    0.7670    0.5642    0.0000 C   0  0  0  0  0  0  0  0  0  0  0  0
    0.7670    1.3892    0.0000 N   0  0  0  0  0  0  0  0  0  0  0  0
    0.0525    1.8017    0.0000 C   0  0  0  0  0  0  0  0  0  0  0  0
    0.0525    2.6267    0.0000 N   0  0  0  0  0  0  0  0  0  0  0  0
   -0.6620    3.0392    0.0000 C   0  0  0  0  0  0  0  0  0  0  0  0
   -0.6620    3.8642    0.0000 C   0  0  0  0  0  0  0  0  0  0  0  0
   -1.3764    4.2767    0.0000 C   0  0  0  0  0  0  0  0  0  0  0  0
   -1.3764    5.1017    0.0000 O   0  0  0  0  0  0  0  0  0  0  0  0
   -2.0909    3.8642    0.0000 N   0  0  0  0  0  0  0  0  0  0  0  0
    0.7670    3.0392    0.0000 C   0  0  0  0  0  0  0  0  0  0  0  0
    0.7670    3.8642    0.0000 C   0  0  0  0  0  0  0  0  0  0  0  0
    1.4815    4.2767    0.0000 O   0  0  0  0  0  0  0  0  0  0  0  0
   -0.6620    1.3892    0.0000 N   0  0  0  0  0  0  0  0  0  0  0  0
   -0.6620    0.5642    0.0000 C   0  0  0  0  0  0  0  0  0  0  0  0
   -1.3764    0.1517    0.0000 N   0  0  0  0  0  0  0  0  0  0  0  0
   -1.3764   -0.6733    0.0000 C   0  0  0  0  0  0  0  0  0  0  0  0
   -2.0909   -1.0858    0.0000 C   0  0  0  0  0  0  0  0  0  0  0  0
   -2.0909   -1.9108    0.0000 C   0  0  0  0  0  0  0  0  0  0  0  0
   -1.3764   -2.3233    0.0000 C   0  0  0  0  0  0  0  0  0  0  0  0
   -0.6620   -1.9108    0.0000 C   0  0  0  0  0  0  0  0  0  0  0  0
   -0.6620   -1.0858    0.0000 C   0  0  0  0  0  0  0  0  0  0  0  0
    0.0525    0.1517    0.0000 N   0  0  0  0  0  0  0  0  0  0  0  0
    0.7670   -1.0858    0.0000 C   0  0  0  0  0  0  0  0  0  0  0  0
    0.7670   -1.9108    0.0000 C   0  0  0  0  0  0  0  0  0  0  0  0
    2.9104   -4.7983    0.0000 C   0  0  0  0  0  0  0  0  0  0  0  0
    2.9104   -5.6233    0.0000 C   0  0  0  0  0  0  0  0  0  0  0  0
    2.1959   -6.0358    0.0000 C   0  0  0  0  0  0  0  0  0  0  0  0
    2.1959   -6.8608    0.0000 N   0  0  0  0  0  0  0  0  0  0  0  0
    2.9104   -7.2733    0.0000 C   0  0  0  0  0  0  0  0  0  0  0  0
    2.9104   -8.0983    0.0000 N   0  0  0  0  0  0  0  0  0  0  0  0
    3.6249   -8.5108    0.0000 C   0  0  0  0  0  0  0  0  0  0  0  0
    3.6249   -9.3358    0.0000 N   0  0  0  0  0  0  0  0  0  0  0  0
    4.3393   -9.7483    0.0000 C   0  0  0  0  0  0  0  0  0  0  0  0
    4.3393  -10.5733    0.0000 C   0  0  0  0  0  0  0  0  0  0  0  0
    5.0538  -10.9858    0.0000 C   0  0  0  0  0  0  0  0  0  0  0  0
    5.7683  -10.5733    0.0000 C   0  0  0  0  0  0  0  0  0  0  0  0
    5.7683   -9.7483    0.0000 C   0  0  0  0  0  0  0  0  0  0  0  0
    5.0538   -9.3358    0.0000 C   0  0  0  0  0  0  0  0  0  0  0  0
    4.3393   -8.0983    0.0000 N   0  0  0  0  0  0  0  0  0  0  0  0
    4.3393   -7.2733    0.0000 C   0  0  0  0  0  0  0  0  0  0  0  0
    5.0538   -6.8608    0.0000 N   0  0  0  0  0  0  0  0  0  0  0  0
    5.7683   -7.2733    0.0000 C   0  0  0  0  0  0  0  0  0  0  0  0
    5.7683   -8.0983    0.0000 C   0  0  0  0  0  0  0  0  0  0  0  0
    6.4828   -8.5108    0.0000 C   0  0  0  0  0  0  0  0  0  0  0  0
    6.4828   -9.3358    0.0000 N   0  0  0  0  0  0  0  0  0  0  0  0
    7.1972   -8.0983    0.0000 O   0  0  0  0  0  0  0  0  0  0  0  0
    5.0538   -6.0358    0.0000 C   0  0  0  0  0  0  0  0  0  0  0  0
    4.3393   -5.6233    0.0000 C   0  0  0  0  0  0  0  0  0  0  0  0
    4.3393   -4.7983    0.0000 O   0  0  0  0  0  0  0  0  0  0  0  0
    3.6249   -6.8608    0.0000 N   0  0  0  0  0  0  0  0  0  0  0  0
    1.4815   -5.6233    0.0000 C   0  0  0  0  0  0  0  0  0  0  0  0
  1  2  1  0  0  0  0
  2  3  2  0  0  0  0
  2  4  2  0  0  0  0
  2  5  1  0  0  0  0
  6  5  1  0  0  0  0
  7  6  1  4  0  0  0
  7  8  2  0  0  0  0
  8  9  1  0  0  0  0
 10  9  2  0  0  0  0
 10 11  1  0  0  0  0
 11 12  1  0  0  0  0
 11 13  2  0  0  0  0
 11 14  2  0  0  0  0
 15 10  1  0  0  0  0
 16 15  2  0  0  0  0
 16 17  1  0  0  0  0
 17 18  1  0  0  0  0
 19 18  2  0  0  0  0
 20 19  1  0  0  0  0
 20 21  1  0  0  0  0
 21 22  1  0  0  0  0
 22 23  1  0  0  0  0
 23 24  1  0  0  0  0
 24 25  2  0  0  0  0
 24 26  1  0  0  0  0
 21 27  1  0  0  0  0
 27 28  1  0  0  0  0
 28 29  1  0  0  0  0
 30 20  2  0  0  0  0
 31 30  1  0  0  0  0
 31 32  1  0  0  0  0
 32 33  1  0  0  0  0
 34 33  2  0  0  0  0
 35 34  1  0  0  0  0
 36 35  2  0  0  0  0
 37 36  1  0  0  0  0
 38 37  2  0  0  0  0
 33 38  1  0  0  0  0
 39 31  2  0  0  0  0
 18 39  1  0  0  0  0
 40 16  1  0  0  0  0
 41 40  2  0  0  0  0
  9 41  1  0  0  0  0
 42  6  2  0  0  0  0
 43 42  1  0  0  0  0
 44 43  2  0  0  0  0
 44 45  1  0  0  0  0
 45 46  1  0  0  0  0
 47 46  1  0  0  0  0
 48 47  2  0  0  0  0
 48 49  1  0  0  0  0
 49 50  1  0  0  0  0
 51 50  2  0  0  0  0
 52 51  1  0  0  0  0
 53 52  2  0  0  0  0
 54 53  1  0  0  0  0
 55 54  2  0  0  0  0
 50 55  1  0  0  0  0
 56 48  1  0  0  0  0
 57 56  2  0  0  0  0
 57 58  1  0  0  0  0
 58 59  1  0  0  0  0
 59 60  1  0  0  0  0
 60 61  1  0  0  0  0
 61 62  1  0  0  0  0
 61 63  2  0  0  0  0
 58 64  1  0  0  0  0
 64 65  1  0  0  0  0
 65 66  1  0  0  0  0
 67 57  1  0  0  0  0
 46 67  2  0  0  0  0
 68 44  1  0  0  0  0
  5 68  2  0  0  0  0
M  END
> <RowID>
1446

> <Original_SMILES>
[Na+].[Na+].NC(=O)CCN(CCO)C1=NC(NC2=CC(=C(C=CC3C=CC(=CC=3S([O-])(=O)=O)NC3=NC(NC4C=CC=CC=4)=NC(=N3)N(CCO)CCC(N)=O)C=C2)S([O-])(=O)=O)=NC(NC2C=CC=CC=2)=N1

> <Canonical_QSARr>
NC(=O)CCN(CCO)C1N=C(NC2=CC(=C(C=C2)C=CC2=CC=C(C=C2S(O)(=O)=O)NC2N=C(NC3C=CC=CC=3)N=C(N=2)N(CCO)CCC(N)=O)S(O)(=O)=O)N=C(NC2C=CC=CC=2)N=1

> <InChI_Code_QSARr>
InChI=1S/C42H46N14O10S2/c43-35(59)17-19-55(21-23-57)41-51-37(45-29-7-3-1-4-8-29)49-39(53-41)47-31-15-13-27(33(25-31)67(61,62)63)11-12-28-14-16-32(26-34(28)68(64,65)66)48-40-50-38(46-30-9-5-2-6-10-30)52-42(54-40)56(22-24-58)20-18-36(44)60/h1-16,25-26,57-58H,17-24H2,(H2,43,59)(H2,44,60)(H,61,62,63)(H,64,65,66)(H2,45,47,49,51,53)(H2,46,48,50,52,54)

> <InChI Key_QSARr>
FYHAKIYWVTVEOS-UHFFFAOYSA-N

> <Salt_Solvent>
[Na+]

> <Salt_Solvent_ID>
110

> <Number of connected components>
3

$$$$
Molecule_1448
  Mrv2316 01072400032D          

 15 15  0  0  0  0            999 V2000
    1.5718   -0.6875    0.0000 C   0  0  0  0  0  0  0  0  0  0  0  0
    0.8574   -1.1000    0.0000 C   0  0  0  0  0  0  0  0  0  0  0  0
    0.1429   -0.6875    0.0000 C   0  0  0  0  0  0  0  0  0  0  0  0
    0.1429    0.1375    0.0000 C   0  0  0  0  0  0  0  0  0  0  0  0
    0.8574    0.5500    0.0000 C   0  0  0  0  0  0  0  0  0  0  0  0
    0.8574    1.3750    0.0000 C   0  0  0  0  0  0  0  0  0  0  0  0
    0.1429    1.7875    0.0000 C   0  0  0  0  0  0  0  0  0  0  0  0
    0.1429    2.6125    0.0000 C   0  0  0  0  0  0  0  0  0  0  0  0
    0.1429    3.4375    0.0000 C   0  0  0  0  0  0  0  0  0  0  0  0
   -0.6821    2.6125    0.0000 C   0  0  0  0  0  0  0  0  0  0  0  0
    0.9679    2.6125    0.0000 C   0  0  0  0  0  0  0  0  0  0  0  0
   -0.5716    1.3750    0.0000 C   0  0  0  0  0  0  0  0  0  0  0  0
   -0.5716    0.5500    0.0000 C   0  0  0  0  0  0  0  0  0  0  0  0
    0.8574   -1.9250    0.0000 C   0  0  0  0  0  0  0  0  0  0  0  0
    1.5718   -2.3375    0.0000 O   0  0  0  0  0  0  0  0  0  0  0  0
  1  2  1  0  0  0  0
  2  3  1  0  0  0  0
  3  4  1  0  0  0  0
  5  4  2  0  0  0  0
  6  5  1  0  0  0  0
  7  6  2  0  0  0  0
  7  8  1  0  0  0  0
  8  9  1  0  0  0  0
  8 10  1  0  0  0  0
  8 11  1  0  0  0  0
 12  7  1  0  0  0  0
 13 12  2  0  0  0  0
  4 13  1  0  0  0  0
  2 14  1  0  0  0  0
 14 15  2  0  0  0  0
M  END
> <RowID>
1448

> <Original_SMILES>
CC(CC1=CC=C(C=C1)C(C)(C)C)C=O

> <Canonical_QSARr>
CC(CC1=CC=C(C=C1)C(C)(C)C)C=O

> <InChI_Code_QSARr>
InChI=1S/C14H20O/c1-11(10-15)9-12-5-7-13(8-6-12)14(2,3)4/h5-8,10-11H,9H2,1-4H3

> <InChI Key_QSARr>
SDQFDHOLCGWZPU-UHFFFAOYSA-N

> <Salt_Solvent>


> <Salt_Solvent_ID>
0

> <Number of connected components>
1

$$$$
Molecule_1449
  Mrv2316 01072400032D          

  8  8  0  0  0  0            999 V2000
    0.7145   -1.2375    0.0000 N   0  0  0  0  0  0  0  0  0  0  0  0
    0.7145   -0.4125    0.0000 C   0  0  0  0  0  0  0  0  0  0  0  0
    1.4289    0.0000    0.0000 C   0  0  0  0  0  0  0  0  0  0  0  0
    1.4289    0.8250    0.0000 C   0  0  0  0  0  0  0  0  0  0  0  0
    0.7145    1.2375    0.0000 C   0  0  0  0  0  0  0  0  0  0  0  0
    0.7145    2.0625    0.0000 O   0  0  0  0  0  0  0  0  0  0  0  0
    0.0000    0.8250    0.0000 C   0  0  0  0  0  0  0  0  0  0  0  0
    0.0000    0.0000    0.0000 C   0  0  0  0  0  0  0  0  0  0  0  0
  1  2  1  0  0  0  0
  3  2  2  0  0  0  0
  4  3  1  0  0  0  0
  5  4  2  0  0  0  0
  5  6  1  0  0  0  0
  7  5  1  0  0  0  0
  8  7  2  0  0  0  0
  2  8  1  0  0  0  0
M  END
> <RowID>
1449

> <Original_SMILES>
NC1=CC=C(O)C=C1

> <Canonical_QSARr>
NC1=CC=C(O)C=C1

> <InChI_Code_QSARr>
InChI=1S/C6H7NO/c7-5-1-3-6(8)4-2-5/h1-4,8H,7H2

> <InChI Key_QSARr>
PLIKAWJENQZMHA-UHFFFAOYSA-N

> <Salt_Solvent>


> <Salt_Solvent_ID>
0

> <Number of connected components>
1

$$$$
Molecule_1450
  Mrv2316 01072400032D          

 22 23  0  0  0  0            999 V2000
    0.7145   -0.8250    0.0000 O   0  0  0  0  0  0  0  0  0  0  0  0
    0.7145   -1.6500    0.0000 C   0  0  0  0  0  0  0  0  0  0  0  0
    1.4290   -2.0625    0.0000 O   0  0  0  0  0  0  0  0  0  0  0  0
    2.1434   -1.6500    0.0000 O   0  0  0  0  0  0  0  0  0  0  0  0
    2.8579   -2.0625    0.0000 C   0  0  0  0  0  0  0  0  0  0  0  0
    2.8579   -2.8875    0.0000 O   0  0  0  0  0  0  0  0  0  0  0  0
    3.5724   -1.6500    0.0000 C   0  0  0  0  0  0  0  0  0  0  0  0
    4.2868   -2.0625    0.0000 C   0  0  0  0  0  0  0  0  0  0  0  0
    5.0013   -1.6500    0.0000 C   0  0  0  0  0  0  0  0  0  0  0  0
    5.0013   -0.8250    0.0000 C   0  0  0  0  0  0  0  0  0  0  0  0
    5.7158   -0.4125    0.0000 Cl  0  0  0  0  0  0  0  0  0  0  0  0
    4.2868   -0.4125    0.0000 C   0  0  0  0  0  0  0  0  0  0  0  0
    3.5724   -0.8250    0.0000 C   0  0  0  0  0  0  0  0  0  0  0  0
    2.8579   -0.4125    0.0000 Cl  0  0  0  0  0  0  0  0  0  0  0  0
    0.0000   -2.0625    0.0000 C   0  0  0  0  0  0  0  0  0  0  0  0
   -0.7145   -1.6500    0.0000 C   0  0  0  0  0  0  0  0  0  0  0  0
   -1.4289   -2.0625    0.0000 C   0  0  0  0  0  0  0  0  0  0  0  0
   -1.4289   -2.8875    0.0000 C   0  0  0  0  0  0  0  0  0  0  0  0
   -2.1434   -3.3000    0.0000 Cl  0  0  0  0  0  0  0  0  0  0  0  0
   -0.7145   -3.3000    0.0000 C   0  0  0  0  0  0  0  0  0  0  0  0
    0.0000   -2.8875    0.0000 C   0  0  0  0  0  0  0  0  0  0  0  0
    0.7145   -3.3000    0.0000 Cl  0  0  0  0  0  0  0  0  0  0  0  0
  1  2  2  0  0  0  0
  2  3  1  0  0  0  0
  3  4  1  0  0  0  0
  4  5  1  0  0  0  0
  5  6  2  0  0  0  0
  5  7  1  0  0  0  0
  8  7  1  0  0  0  0
  9  8  2  0  0  0  0
 10  9  1  0  0  0  0
 10 11  1  0  0  0  0
 12 10  2  0  0  0  0
 13 12  1  0  0  0  0
  7 13  2  0  0  0  0
 13 14  1  0  0  0  0
  2 15  1  0  0  0  0
 16 15  1  0  0  0  0
 17 16  2  0  0  0  0
 18 17  1  0  0  0  0
 18 19  1  0  0  0  0
 20 18  2  0  0  0  0
 21 20  1  0  0  0  0
 15 21  2  0  0  0  0
 21 22  1  0  0  0  0
M  END
> <RowID>
1450

> <Original_SMILES>
O=C(OOC(=O)C1C=CC(Cl)=CC=1Cl)C1C=CC(Cl)=CC=1Cl

> <Canonical_QSARr>
O=C(OOC(=O)C1C=CC(Cl)=CC=1Cl)C1C=CC(Cl)=CC=1Cl

> <InChI_Code_QSARr>
InChI=1S/C14H6Cl4O4/c15-7-1-3-9(11(17)5-7)13(19)21-22-14(20)10-4-2-8(16)6-12(10)18/h1-6H

> <InChI Key_QSARr>
WRXCBRHBHGNNQA-UHFFFAOYSA-N

> <Salt_Solvent>


> <Salt_Solvent_ID>
0

> <Number of connected components>
1

$$$$
Molecule_1451
  Mrv2316 01072400032D          

 19 18  0  0  0  0            999 V2000
   -2.1920    2.9043    0.0000 O   0  0  0  0  0  0  0  0  0  0  0  0
   -1.3851    2.7328    0.0000 C   0  0  0  0  0  0  0  0  0  0  0  0
   -0.8330    3.3459    0.0000 C   0  0  0  0  0  0  0  0  0  0  0  0
   -1.0880    4.1305    0.0000 C   0  0  0  0  0  0  0  0  0  0  0  0
   -0.5359    4.7436    0.0000 O   0  0  0  0  0  0  0  0  0  0  0  0
   -0.0260    3.1743    0.0000 O   0  0  0  0  0  0  0  0  0  0  0  0
    0.2289    2.3897    0.0000 B   0  0  0  0  0  0  0  0  0  0  0  0
   -0.3231    1.7766    0.0000 O   0  0  0  0  0  0  0  0  0  0  0  0
   -0.0682    0.9920    0.0000 C   0  0  0  0  0  0  0  0  0  0  0  0
   -0.6202    0.3789    0.0000 C   0  0  0  0  0  0  0  0  0  0  0  0
   -1.4272    0.5504    0.0000 O   0  0  0  0  0  0  0  0  0  0  0  0
    0.7388    0.8205    0.0000 C   0  0  0  0  0  0  0  0  0  0  0  0
    0.9937    0.0359    0.0000 O   0  0  0  0  0  0  0  0  0  0  0  0
    1.0359    2.2182    0.0000 O   0  0  0  0  0  0  0  0  0  0  0  0
    1.2908    1.4336    0.0000 C   0  0  0  0  0  0  0  0  0  0  0  0
    1.5457    2.2182    0.0000 C   0  0  0  0  0  0  0  0  0  0  0  0
    2.3527    2.3897    0.0000 O   0  0  0  0  0  0  0  0  0  0  0  0
    1.8428    0.8205    0.0000 C   0  0  0  0  0  0  0  0  0  0  0  0
    1.5879    0.0359    0.0000 O   0  0  0  0  0  0  0  0  0  0  0  0
  1  2  1  0  0  0  0
  2  3  1  0  0  0  0
  3  4  1  0  0  0  0
  4  5  1  0  0  0  0
  3  6  1  0  0  0  0
  6  7  1  0  0  0  0
  7  8  1  0  0  0  0
  8  9  1  0  0  0  0
  9 10  1  0  0  0  0
 10 11  1  0  0  0  0
  9 12  1  0  0  0  0
 12 13  1  0  0  0  0
  7 14  1  0  0  0  0
 14 15  1  0  0  0  0
 15 16  1  0  0  0  0
 16 17  1  0  0  0  0
 15 18  1  0  0  0  0
 18 19  1  0  0  0  0
M  END
> <RowID>
1451

> <Original_SMILES>
OCC(CO)OB(OC(CO)CO)OC(CO)CO

> <Canonical_QSARr>
OCC(CO)OB(OC(CO)CO)OC(CO)CO

> <InChI_Code_QSARr>
InChI=1S/C9H21BO9/c11-1-7(2-12)17-10(18-8(3-13)4-14)19-9(5-15)6-16/h7-9,11-16H,1-6H2

> <InChI Key_QSARr>
WWNXZGLIVBDXMQ-UHFFFAOYSA-N

> <Salt_Solvent>


> <Salt_Solvent_ID>
0

> <Number of connected components>
1

$$$$
Molecule_1452
  Mrv2316 01072400032D          

 13 14  0  0  0  0            999 V2000
    0.7145   -5.7433    0.0000 O   0  0  0  0  0  0  0  0  0  0  0  0
    0.7145   -4.9183    0.0000 C   0  0  0  0  0  0  0  0  0  0  0  0
    1.4289   -4.5058    0.0000 C   0  0  0  0  0  0  0  0  0  0  0  0
    1.4289   -3.6808    0.0000 C   0  0  0  0  0  0  0  0  0  0  0  0
    0.7145   -3.2683    0.0000 C   0  0  0  0  0  0  0  0  0  0  0  0
    0.7145   -2.4433    0.0000 C   0  0  0  0  0  0  0  0  0  0  0  0
    1.4289   -2.0308    0.0000 C   0  0  0  0  0  0  0  0  0  0  0  0
    1.4289   -1.2058    0.0000 C   0  0  0  0  0  0  0  0  0  0  0  0
    0.7145   -0.7933    0.0000 C   0  0  0  0  0  0  0  0  0  0  0  0
   -0.0000   -1.2058    0.0000 C   0  0  0  0  0  0  0  0  0  0  0  0
   -0.0000   -2.0308    0.0000 C   0  0  0  0  0  0  0  0  0  0  0  0
   -0.0000   -3.6808    0.0000 C   0  0  0  0  0  0  0  0  0  0  0  0
   -0.0000   -4.5058    0.0000 C   0  0  0  0  0  0  0  0  0  0  0  0
  1  2  1  0  0  0  0
  3  2  1  0  0  0  0
  4  3  2  0  0  0  0
  5  4  1  0  0  0  0
  5  6  1  0  0  0  0
  7  6  1  0  0  0  0
  8  7  2  0  0  0  0
  9  8  1  0  0  0  0
 10  9  2  0  0  0  0
 11 10  1  0  0  0  0
  6 11  2  0  0  0  0
 12  5  2  0  0  0  0
 13 12  1  0  0  0  0
  2 13  2  0  0  0  0
M  END
> <RowID>
1452

> <Original_SMILES>
OC1C=CC(=CC=1)C1C=CC=CC=1

> <Canonical_QSARr>
OC1C=CC(=CC=1)C1C=CC=CC=1

> <InChI_Code_QSARr>
InChI=1S/C12H10O/c13-12-8-6-11(7-9-12)10-4-2-1-3-5-10/h1-9,13H

> <InChI Key_QSARr>
YXVFYQXJAXKLAK-UHFFFAOYSA-N

> <Salt_Solvent>


> <Salt_Solvent_ID>
0

> <Number of connected components>
1

$$$$
Molecule_1453
  Mrv2316 01072400032D          

 22 23  0  0  0  0            999 V2000
    5.8132   -3.2438    0.0000 C   0  0  0  0  0  0  0  0  0  0  0  0
    5.0987   -2.8312    0.0000 O   0  0  0  0  0  0  0  0  0  0  0  0
    5.0987   -2.0063    0.0000 C   0  0  0  0  0  0  0  0  0  0  0  0
    5.8132   -1.5938    0.0000 O   0  0  0  0  0  0  0  0  0  0  0  0
    4.3843   -1.5938    0.0000 C   0  0  0  0  0  0  0  0  0  0  0  0
    4.3843   -0.7687    0.0000 C   0  0  0  0  0  0  0  0  0  0  0  0
    5.0987   -0.3563    0.0000 O   0  0  0  0  0  0  0  0  0  0  0  0
    5.0987    0.4687    0.0000 C   0  0  0  0  0  0  0  0  0  0  0  0
    3.6698   -2.0063    0.0000 C   0  0  0  0  0  0  0  0  0  0  0  0
    3.6698   -2.8313    0.0000 C   0  0  0  0  0  0  0  0  0  0  0  0
    2.9553   -3.2438    0.0000 C   0  0  0  0  0  0  0  0  0  0  0  0
    2.2408   -2.8313    0.0000 C   0  0  0  0  0  0  0  0  0  0  0  0
    2.2408   -2.0063    0.0000 C   0  0  0  0  0  0  0  0  0  0  0  0
    2.9553   -1.5938    0.0000 C   0  0  0  0  0  0  0  0  0  0  0  0
    2.9553   -0.7688    0.0000 O   0  0  0  0  0  0  0  0  0  0  0  0
    2.2408   -0.3563    0.0000 C   0  0  0  0  0  0  0  0  0  0  0  0
    2.2408    0.4688    0.0000 C   0  0  0  0  0  0  0  0  0  0  0  0
    1.5264    0.8812    0.0000 C   0  0  0  0  0  0  0  0  0  0  0  0
    1.5264    1.7063    0.0000 Cl  0  0  0  0  0  0  0  0  0  0  0  0
    0.8119    0.4688    0.0000 N   0  0  0  0  0  0  0  0  0  0  0  0
    0.8119   -0.3562    0.0000 C   0  0  0  0  0  0  0  0  0  0  0  0
    1.5264   -0.7688    0.0000 N   0  0  0  0  0  0  0  0  0  0  0  0
  1  2  1  0  0  0  0
  2  3  1  0  0  0  0
  3  4  2  0  0  0  0
  3  5  1  0  0  0  0
  5  6  2  0  0  0  0
  6  7  1  4  0  0  0
  7  8  1  0  0  0  0
  5  9  1  0  0  0  0
 10  9  2  0  0  0  0
 11 10  1  0  0  0  0
 12 11  2  0  0  0  0
 13 12  1  0  0  0  0
 14 13  2  0  0  0  0
  9 14  1  0  0  0  0
 14 15  1  0  0  0  0
 15 16  1  0  0  0  0
 17 16  2  0  0  0  0
 18 17  1  0  0  0  0
 18 19  1  0  0  0  0
 20 18  2  0  0  0  0
 21 20  1  0  0  0  0
 22 21  2  0  0  0  0
 16 22  1  0  0  0  0
M  END
> <RowID>
1453

> <Original_SMILES>
COC(=O)C(=COC)C1=CC=CC=C1OC1=CC(Cl)=NC=N1

> <Canonical_QSARr>
COC(=O)C(=COC)C1=CC=CC=C1OC1=CC(Cl)=NC=N1

> <InChI_Code_QSARr>
InChI=1S/C15H13ClN2O4/c1-20-8-11(15(19)21-2)10-5-3-4-6-12(10)22-14-7-13(16)17-9-18-14/h3-9H,1-2H3

> <InChI Key_QSARr>
YRYZZSRRDCTETP-UHFFFAOYSA-N

> <Salt_Solvent>


> <Salt_Solvent_ID>
0

> <Number of connected components>
1

$$$$
Molecule_1455
  Mrv2316 01072400032D          

 49 48  0  0  0  0            999 V2000
    3.7125  -10.9381    0.0000 C   0  0  0  0  0  0  0  0  0  0  0  0
    3.3000  -10.2236    0.0000 C   0  0  0  0  0  0  0  0  0  0  0  0
    2.4750  -10.2236    0.0000 C   0  0  0  0  0  0  0  0  0  0  0  0
    3.7125   -9.5092    0.0000 C   0  0  0  0  0  0  0  0  0  0  0  0
    3.3000   -8.7947    0.0000 C   0  0  0  0  0  0  0  0  0  0  0  0
    3.7125   -8.0802    0.0000 C   0  0  0  0  0  0  0  0  0  0  0  0
    3.3000   -7.3658    0.0000 C   0  0  0  0  0  0  0  0  0  0  0  0
    3.7125   -6.6513    0.0000 C   0  0  0  0  0  0  0  0  0  0  0  0
    3.3000   -5.9368    0.0000 C   0  0  0  0  0  0  0  0  0  0  0  0
    2.4750   -5.9368    0.0000 O   0  0  0  0  0  0  0  0  0  0  0  0
    3.7125   -5.2224    0.0000 O   0  0  0  0  0  0  0  0  0  0  0  0
    3.3000   -4.5079    0.0000 C   0  0  0  0  0  0  0  0  0  0  0  0
    3.7125   -3.7934    0.0000 C   0  0  0  0  0  0  0  0  0  0  0  0
    4.1250   -3.0789    0.0000 C   0  0  0  0  0  0  0  0  0  0  0  0
    4.9500   -3.0789    0.0000 O   0  0  0  0  0  0  0  0  0  0  0  0
    5.3625   -3.7934    0.0000 C   0  0  0  0  0  0  0  0  0  0  0  0
    4.9500   -4.5079    0.0000 O   0  0  0  0  0  0  0  0  0  0  0  0
    6.1875   -3.7934    0.0000 C   0  0  0  0  0  0  0  0  0  0  0  0
    6.6000   -4.5079    0.0000 C   0  0  0  0  0  0  0  0  0  0  0  0
    7.4250   -4.5079    0.0000 C   0  0  0  0  0  0  0  0  0  0  0  0
    7.8375   -5.2224    0.0000 C   0  0  0  0  0  0  0  0  0  0  0  0
    8.6625   -5.2224    0.0000 C   0  0  0  0  0  0  0  0  0  0  0  0
    9.0750   -5.9368    0.0000 C   0  0  0  0  0  0  0  0  0  0  0  0
    9.9000   -5.9368    0.0000 C   0  0  0  0  0  0  0  0  0  0  0  0
    8.6625   -6.6513    0.0000 C   0  0  0  0  0  0  0  0  0  0  0  0
    4.4270   -4.2059    0.0000 C   0  0  0  0  0  0  0  0  0  0  0  0
    4.4270   -5.0309    0.0000 O   0  0  0  0  0  0  0  0  0  0  0  0
    5.1415   -5.4434    0.0000 C   0  0  0  0  0  0  0  0  0  0  0  0
    5.8559   -5.0309    0.0000 O   0  0  0  0  0  0  0  0  0  0  0  0
    5.1415   -6.2684    0.0000 C   0  0  0  0  0  0  0  0  0  0  0  0
    5.8559   -6.6809    0.0000 C   0  0  0  0  0  0  0  0  0  0  0  0
    5.8559   -7.5059    0.0000 C   0  0  0  0  0  0  0  0  0  0  0  0
    6.5704   -7.9184    0.0000 C   0  0  0  0  0  0  0  0  0  0  0  0
    6.5704   -8.7434    0.0000 C   0  0  0  0  0  0  0  0  0  0  0  0
    7.2849   -9.1559    0.0000 C   0  0  0  0  0  0  0  0  0  0  0  0
    7.9993   -8.7434    0.0000 C   0  0  0  0  0  0  0  0  0  0  0  0
    7.2849   -9.9809    0.0000 C   0  0  0  0  0  0  0  0  0  0  0  0
    2.9980   -3.3809    0.0000 C   0  0  0  0  0  0  0  0  0  0  0  0
    2.9980   -2.5559    0.0000 O   0  0  0  0  0  0  0  0  0  0  0  0
    3.7125   -2.1434    0.0000 C   0  0  0  0  0  0  0  0  0  0  0  0
    3.7125   -1.3184    0.0000 O   0  0  0  0  0  0  0  0  0  0  0  0
    4.4270   -2.5559    0.0000 C   0  0  0  0  0  0  0  0  0  0  0  0
    5.1415   -2.1434    0.0000 C   0  0  0  0  0  0  0  0  0  0  0  0
    5.8559   -2.5559    0.0000 C   0  0  0  0  0  0  0  0  0  0  0  0
    6.5704   -2.1434    0.0000 C   0  0  0  0  0  0  0  0  0  0  0  0
    7.2849   -2.5559    0.0000 C   0  0  0  0  0  0  0  0  0  0  0  0
    7.9993   -2.1434    0.0000 C   0  0  0  0  0  0  0  0  0  0  0  0
    7.9993   -1.3184    0.0000 C   0  0  0  0  0  0  0  0  0  0  0  0
    8.7138   -2.5559    0.0000 C   0  0  0  0  0  0  0  0  0  0  0  0
  1  2  1  0  0  0  0
  2  3  1  0  0  0  0
  2  4  1  0  0  0  0
  4  5  1  0  0  0  0
  5  6  1  0  0  0  0
  6  7  1  0  0  0  0
  7  8  1  0  0  0  0
  8  9  1  0  0  0  0
  9 10  2  0  0  0  0
  9 11  1  0  0  0  0
 11 12  1  0  0  0  0
 12 13  1  0  0  0  0
 13 14  1  0  0  0  0
 14 15  1  0  0  0  0
 15 16  1  0  0  0  0
 16 17  2  0  0  0  0
 16 18  1  0  0  0  0
 18 19  1  0  0  0  0
 19 20  1  0  0  0  0
 20 21  1  0  0  0  0
 21 22  1  0  0  0  0
 22 23  1  0  0  0  0
 23 24  1  0  0  0  0
 23 25  1  0  0  0  0
 13 26  1  0  0  0  0
 26 27  1  0  0  0  0
 27 28  1  0  0  0  0
 28 29  2  0  0  0  0
 28 30  1  0  0  0  0
 30 31  1  0  0  0  0
 31 32  1  0  0  0  0
 32 33  1  0  0  0  0
 33 34  1  0  0  0  0
 34 35  1  0  0  0  0
 35 36  1  0  0  0  0
 35 37  1  0  0  0  0
 13 38  1  0  0  0  0
 38 39  1  0  0  0  0
 39 40  1  0  0  0  0
 40 41  2  0  0  0  0
 40 42  1  0  0  0  0
 42 43  1  0  0  0  0
 43 44  1  0  0  0  0
 44 45  1  0  0  0  0
 45 46  1  0  0  0  0
 46 47  1  0  0  0  0
 47 48  1  0  0  0  0
 47 49  1  0  0  0  0
M  END
> <RowID>
1455

> <Original_SMILES>
CC(C)CCCCCC(=O)OCC(COC(=O)CCCCCC(C)C)(COC(=O)CCCCCC(C)C)COC(=O)CCCCCC(C)C

> <Canonical_QSARr>
CC(C)CCCCCC(=O)OCC(COC(=O)CCCCCC(C)C)(COC(=O)CCCCCC(C)C)COC(=O)CCCCCC(C)C

> <InChI_Code_QSARr>
InChI=1S/C41H76O8/c1-33(2)21-13-9-17-25-37(42)46-29-41(30-47-38(43)26-18-10-14-22-34(3)4,31-48-39(44)27-19-11-15-23-35(5)6)32-49-40(45)28-20-12-16-24-36(7)8/h33-36H,9-32H2,1-8H3

> <InChI Key_QSARr>
PPKAGMLCLQWXJX-UHFFFAOYSA-N

> <Salt_Solvent>


> <Salt_Solvent_ID>
0

> <Number of connected components>
1

$$$$
Molecule_1457
  Mrv2316 01072400032D          

 13 13  0  0  0  0            999 V2000
   -0.0000   -2.8558    0.0000 C   0  0  0  0  0  0  0  0  0  0  0  0
    0.7145   -2.4433    0.0000 O   0  0  0  0  0  0  0  0  0  0  0  0
    0.7145   -1.6183    0.0000 C   0  0  0  0  0  0  0  0  0  0  0  0
    1.4289   -1.2058    0.0000 C   0  0  0  0  0  0  0  0  0  0  0  0
    1.4289   -0.3808    0.0000 C   0  0  0  0  0  0  0  0  0  0  0  0
    0.7145    0.0317    0.0000 C   0  0  0  0  0  0  0  0  0  0  0  0
    0.7145    0.8567    0.0000 C   0  0  0  0  0  0  0  0  0  0  0  0
    1.4289    1.2692    0.0000 O   0  0  0  0  0  0  0  0  0  0  0  0
    1.4289    2.0942    0.0000 C   0  0  0  0  0  0  0  0  0  0  0  0
   -0.0000    1.2692    0.0000 O   0  0  0  0  0  0  0  0  0  0  0  0
   -0.0000    2.0942    0.0000 C   0  0  0  0  0  0  0  0  0  0  0  0
   -0.0000   -0.3808    0.0000 C   0  0  0  0  0  0  0  0  0  0  0  0
   -0.0000   -1.2058    0.0000 C   0  0  0  0  0  0  0  0  0  0  0  0
  1  2  1  0  0  0  0
  2  3  1  0  0  0  0
  4  3  1  0  0  0  0
  5  4  2  0  0  0  0
  6  5  1  0  0  0  0
  6  7  1  0  0  0  0
  7  8  1  0  0  0  0
  8  9  1  0  0  0  0
  7 10  1  0  0  0  0
 10 11  1  0  0  0  0
 12  6  2  0  0  0  0
 13 12  1  0  0  0  0
  3 13  2  0  0  0  0
M  END
> <RowID>
1457

> <Original_SMILES>
COC1C=CC(=CC=1)C(OC)OC

> <Canonical_QSARr>
COC1C=CC(=CC=1)C(OC)OC

> <InChI_Code_QSARr>
InChI=1S/C10H14O3/c1-11-9-6-4-8(5-7-9)10(12-2)13-3/h4-7,10H,1-3H3

> <InChI Key_QSARr>
NNHYAHOTXLASEA-UHFFFAOYSA-N

> <Salt_Solvent>


> <Salt_Solvent_ID>
0

> <Number of connected components>
1

$$$$
Molecule_1458
  Mrv2316 01072400032D          

 14 14  0  0  0  0            999 V2000
    3.5108   -4.5315    0.0000 C   0  0  0  0  0  0  0  0  0  0  0  0
    4.2253   -4.9440    0.0000 C   0  0  0  0  0  0  0  0  0  0  0  0
    4.9398   -4.5315    0.0000 C   0  0  0  0  0  0  0  0  0  0  0  0
    5.6542   -4.9440    0.0000 C   0  0  0  0  0  0  0  0  0  0  0  0
    6.3687   -4.5315    0.0000 C   0  0  0  0  0  0  0  0  0  0  0  0
    7.0832   -4.9440    0.0000 C   0  0  0  0  0  0  0  0  0  0  0  0
    7.7976   -4.5315    0.0000 C   0  0  0  0  0  0  0  0  0  0  0  0
    8.5121   -4.9440    0.0000 C   0  0  0  0  0  0  0  0  0  0  0  0
    9.2266   -4.5315    0.0000 N   0  0  0  0  0  0  0  0  0  0  0  0
    9.9803   -4.8670    0.0000 C   0  0  0  0  0  0  0  0  0  0  0  0
   10.5323   -4.2540    0.0000 C   0  0  0  0  0  0  0  0  0  0  0  0
   10.1198   -3.5395    0.0000 C   0  0  0  0  0  0  0  0  0  0  0  0
    9.3128   -3.7110    0.0000 C   0  0  0  0  0  0  0  0  0  0  0  0
    8.6997   -3.1590    0.0000 O   0  0  0  0  0  0  0  0  0  0  0  0
  1  2  1  0  0  0  0
  2  3  1  0  0  0  0
  3  4  1  0  0  0  0
  4  5  1  0  0  0  0
  5  6  1  0  0  0  0
  6  7  1  0  0  0  0
  7  8  1  0  0  0  0
  8  9  1  0  0  0  0
 10  9  1  0  0  0  0
 11 10  1  0  0  0  0
 12 11  1  0  0  0  0
 13 12  1  0  0  0  0
  9 13  1  0  0  0  0
 13 14  2  0  0  0  0
M  END
> <RowID>
1458

> <Original_SMILES>
CCCCCCCCN1CCCC1=O

> <Canonical_QSARr>
CCCCCCCCN1CCCC1=O

> <InChI_Code_QSARr>
InChI=1S/C12H23NO/c1-2-3-4-5-6-7-10-13-11-8-9-12(13)14/h2-11H2,1H3

> <InChI Key_QSARr>
WPPOGHDFAVQKLN-UHFFFAOYSA-N

> <Salt_Solvent>


> <Salt_Solvent_ID>
0

> <Number of connected components>
1

$$$$
Molecule_1459
  Mrv2316 01072400032D          

  6  5  0  0  0  0            999 V2000
    1.2375    2.1434    0.0000 C   0  0  0  0  0  0  0  0  0  0  0  0
    0.8250    1.4289    0.0000 C   0  0  0  0  0  0  0  0  0  0  0  0
    1.2375    0.7145    0.0000 C   0  0  0  0  0  0  0  0  0  0  0  0
    0.8250   -0.0000    0.0000 N   0  3  0  0  0  0  0  0  0  0  0  0
    1.2375   -0.7145    0.0000 O   0  5  0  0  0  0  0  0  0  0  0  0
    0.0000   -0.0000    0.0000 O   0  0  0  0  0  0  0  0  0  0  0  0
  1  2  1  0  0  0  0
  2  3  1  0  0  0  0
  3  4  1  0  0  0  0
  4  5  1  0  0  0  0
  4  6  2  0  0  0  0
M  CHG  2   4   1   5  -1
M  END
> <RowID>
1459

> <Original_SMILES>
CCC[N+]([O-])=O

> <Canonical_QSARr>
CCC[N+]([O-])=O

> <InChI_Code_QSARr>
InChI=1S/C3H7NO2/c1-2-3-4(5)6/h2-3H2,1H3

> <InChI Key_QSARr>
JSZOAYXJRCEYSX-UHFFFAOYSA-N

> <Salt_Solvent>


> <Salt_Solvent_ID>
0

> <Number of connected components>
1

$$$$
Molecule_1460
  Mrv2316 01072400032D          

 26 25  0  0  0  0            999 V2000
   11.6605    7.5572    0.0000 C   0  0  0  0  0  0  0  0  0  0  0  0
   12.3750    7.1447    0.0000 C   0  0  0  0  0  0  0  0  0  0  0  0
   13.0895    7.5572    0.0000 C   0  0  0  0  0  0  0  0  0  0  0  0
   13.8039    7.1447    0.0000 C   0  0  0  0  0  0  0  0  0  0  0  0
   14.5184    7.5572    0.0000 C   0  0  0  0  0  0  0  0  0  0  0  0
   15.2329    7.1447    0.0000 C   0  0  0  0  0  0  0  0  0  0  0  0
   15.9473    7.5572    0.0000 O   0  0  0  0  0  0  0  0  0  0  0  0
   16.6618    7.1447    0.0000 C   0  0  0  0  0  0  0  0  0  0  0  0
   16.6618    6.3197    0.0000 O   0  0  0  0  0  0  0  0  0  0  0  0
   17.3763    7.5572    0.0000 C   0  0  0  0  0  0  0  0  0  0  0  0
   18.0907    7.1447    0.0000 C   0  0  0  0  0  0  0  0  0  0  0  0
   18.8052    7.5572    0.0000 C   0  0  0  0  0  0  0  0  0  0  0  0
   19.5197    7.1447    0.0000 C   0  0  0  0  0  0  0  0  0  0  0  0
   20.2342    7.5572    0.0000 C   0  0  0  0  0  0  0  0  0  0  0  0
   20.9486    7.1447    0.0000 C   0  0  0  0  0  0  0  0  0  0  0  0
   21.6631    7.5572    0.0000 C   0  0  0  0  0  0  0  0  0  0  0  0
   22.3776    7.1447    0.0000 C   0  0  0  0  0  0  0  0  0  0  0  0
   23.0920    7.5572    0.0000 C   0  0  0  0  0  0  0  0  0  0  0  0
   23.8065    7.1447    0.0000 C   0  0  0  0  0  0  0  0  0  0  0  0
   24.5210    7.5572    0.0000 C   0  0  0  0  0  0  0  0  0  0  0  0
   25.2355    7.1447    0.0000 C   0  0  0  0  0  0  0  0  0  0  0  0
   25.9499    7.5572    0.0000 C   0  0  0  0  0  0  0  0  0  0  0  0
   26.6644    7.1447    0.0000 C   0  0  0  0  0  0  0  0  0  0  0  0
   27.3789    7.5572    0.0000 C   0  0  0  0  0  0  0  0  0  0  0  0
   14.5184    8.3822    0.0000 C   0  0  0  0  0  0  0  0  0  0  0  0
   15.2329    8.7947    0.0000 C   0  0  0  0  0  0  0  0  0  0  0  0
  1  2  1  0  0  0  0
  2  3  1  0  0  0  0
  3  4  1  0  0  0  0
  4  5  1  0  0  0  0
  5  6  1  0  0  0  0
  6  7  1  0  0  0  0
  7  8  1  0  0  0  0
  8  9  2  0  0  0  0
  8 10  1  0  0  0  0
 10 11  1  0  0  0  0
 11 12  1  0  0  0  0
 12 13  1  0  0  0  0
 13 14  1  0  0  0  0
 14 15  1  0  0  0  0
 15 16  1  0  0  0  0
 16 17  1  0  0  0  0
 17 18  1  0  0  0  0
 18 19  1  0  0  0  0
 19 20  1  0  0  0  0
 20 21  1  0  0  0  0
 21 22  1  0  0  0  0
 22 23  1  0  0  0  0
 23 24  1  0  0  0  0
  5 25  1  0  0  0  0
 25 26  1  0  0  0  0
M  END
> <RowID>
1460

> <Original_SMILES>
CCCCC(COC(=O)CCCCCCCCCCCCCCC)CC

> <Canonical_QSARr>
CCCCC(COC(=O)CCCCCCCCCCCCCCC)CC

> <InChI_Code_QSARr>
InChI=1S/C24H48O2/c1-4-7-9-10-11-12-13-14-15-16-17-18-19-21-24(25)26-22-23(6-3)20-8-5-2/h23H,4-22H2,1-3H3

> <InChI Key_QSARr>
SFAAOBGYWOUHLU-UHFFFAOYSA-N

> <Salt_Solvent>


> <Salt_Solvent_ID>
0

> <Number of connected components>
1

$$$$
Molecule_1462
  Mrv2316 01072400032D          

 24 24  0  0  0  0            999 V2000
    3.9950   -1.1402    0.0000 C   0  0  0  0  0  0  0  0  0  0  0  0
    3.2805   -0.7277    0.0000 C   0  0  0  0  0  0  0  0  0  0  0  0
    3.6930   -0.0132    0.0000 C   0  0  0  0  0  0  0  0  0  0  0  0
    2.8680   -1.4422    0.0000 C   0  0  0  0  0  0  0  0  0  0  0  0
    2.5660   -0.3152    0.0000 C   0  0  0  0  0  0  0  0  0  0  0  0
    2.5660    0.5098    0.0000 C   0  0  0  0  0  0  0  0  0  0  0  0
    1.8516    0.9223    0.0000 C   0  0  0  0  0  0  0  0  0  0  0  0
    1.8516    1.7473    0.0000 C   0  0  0  0  0  0  0  0  0  0  0  0
    1.1371    2.1598    0.0000 P   0  0  0  0  0  0  0  0  0  0  0  0
    1.5496    2.8743    0.0000 O   0  0  0  0  0  0  0  0  0  0  0  0
    0.4226    2.5723    0.0000 O   0  0  0  0  0  0  0  0  0  0  0  0
    0.4226    3.3973    0.0000 C   0  0  0  0  0  0  0  0  0  0  0  0
   -0.2919    3.8098    0.0000 C   0  0  0  0  0  0  0  0  0  0  0  0
    0.7246    1.4453    0.0000 O   0  0  0  0  0  0  0  0  0  0  0  0
   -0.1004    1.4453    0.0000 C   0  0  0  0  0  0  0  0  0  0  0  0
   -0.5129    2.1598    0.0000 C   0  0  0  0  0  0  0  0  0  0  0  0
    1.1371    0.5098    0.0000 C   0  0  0  0  0  0  0  0  0  0  0  0
    1.1371   -0.3152    0.0000 C   0  0  0  0  0  0  0  0  0  0  0  0
    0.4226   -0.7277    0.0000 C   0  0  0  0  0  0  0  0  0  0  0  0
   -0.2919   -1.1402    0.0000 C   0  0  0  0  0  0  0  0  0  0  0  0
    0.8351   -1.4422    0.0000 C   0  0  0  0  0  0  0  0  0  0  0  0
    0.0101   -0.0132    0.0000 C   0  0  0  0  0  0  0  0  0  0  0  0
    1.8516   -0.7277    0.0000 C   0  0  0  0  0  0  0  0  0  0  0  0
    1.8516   -1.5527    0.0000 O   0  0  0  0  0  0  0  0  0  0  0  0
  1  2  1  0  0  0  0
  2  3  1  0  0  0  0
  2  4  1  0  0  0  0
  2  5  1  0  0  0  0
  6  5  2  0  0  0  0
  7  6  1  0  0  0  0
  7  8  1  0  0  0  0
  8  9  1  0  0  0  0
  9 10  2  0  0  0  0
  9 11  1  0  0  0  0
 11 12  1  0  0  0  0
 12 13  1  0  0  0  0
  9 14  1  0  0  0  0
 14 15  1  0  0  0  0
 15 16  1  0  0  0  0
 17  7  2  0  0  0  0
 18 17  1  0  0  0  0
 18 19  1  0  0  0  0
 19 20  1  0  0  0  0
 19 21  1  0  0  0  0
 19 22  1  0  0  0  0
 23 18  2  0  0  0  0
  5 23  1  0  0  0  0
 23 24  1  0  0  0  0
M  END
> <RowID>
1462

> <Original_SMILES>
CC(C)(C)C1=CC(CP(=O)(OCC)OCC)=CC(=C1O)C(C)(C)C

> <Canonical_QSARr>
CC(C)(C)C1=CC(CP(=O)(OCC)OCC)=CC(=C1O)C(C)(C)C

> <InChI_Code_QSARr>
InChI=1S/C19H33O4P/c1-9-22-24(21,23-10-2)13-14-11-15(18(3,4)5)17(20)16(12-14)19(6,7)8/h11-12,20H,9-10,13H2,1-8H3

> <InChI Key_QSARr>
GJDRKHHGPHLVNI-UHFFFAOYSA-N

> <Salt_Solvent>


> <Salt_Solvent_ID>
0

> <Number of connected components>
1

$$$$
Molecule_1463
  Mrv2316 01072400032D          

 10 10  0  0  0  0            999 V2000
   -0.3572    2.2688    0.0000 O   0  5  0  0  0  0  0  0  0  0  0  0
   -0.3572    1.4438    0.0000 N   0  3  0  0  0  0  0  0  0  0  0  0
   -1.0717    1.0313    0.0000 O   0  0  0  0  0  0  0  0  0  0  0  0
    0.3572    1.0313    0.0000 C   0  0  0  0  0  0  0  0  0  0  0  0
    0.3572    0.2062    0.0000 C   0  0  0  0  0  0  0  0  0  0  0  0
    1.0717   -0.2063    0.0000 C   0  0  0  0  0  0  0  0  0  0  0  0
    1.7862    0.2062    0.0000 C   0  0  0  0  0  0  0  0  0  0  0  0
    1.7862    1.0312    0.0000 C   0  0  0  0  0  0  0  0  0  0  0  0
    1.0717    1.4437    0.0000 C   0  0  0  0  0  0  0  0  0  0  0  0
    1.0717    2.2687    0.0000 O   0  0  0  0  0  0  0  0  0  0  0  0
  1  2  1  0  0  0  0
  2  3  2  0  0  0  0
  2  4  1  0  0  0  0
  5  4  1  0  0  0  0
  6  5  2  0  0  0  0
  7  6  1  0  0  0  0
  8  7  2  0  0  0  0
  9  8  1  0  0  0  0
  4  9  2  0  0  0  0
  9 10  1  0  0  0  0
M  CHG  2   1  -1   2   1
M  END
> <RowID>
1463

> <Original_SMILES>
[O-][N+](=O)C1C=CC=CC=1O

> <Canonical_QSARr>
[O-][N+](=O)C1C=CC=CC=1O

> <InChI_Code_QSARr>
InChI=1S/C6H5NO3/c8-6-4-2-1-3-5(6)7(9)10/h1-4,8H

> <InChI Key_QSARr>
IQUPABOKLQSFBK-UHFFFAOYSA-N

> <Salt_Solvent>


> <Salt_Solvent_ID>
0

> <Number of connected components>
1

$$$$
Molecule_1464
  Mrv2316 01072400032D          

 34 35  0  0  0  0            999 V2000
   -1.1849   -9.0489    0.0000 C   0  0  0  0  0  0  0  0  0  0  0  0
   -0.4704   -9.4614    0.0000 C   0  0  0  0  0  0  0  0  0  0  0  0
   -0.4704  -10.2864    0.0000 C   0  0  0  0  0  0  0  0  0  0  0  0
    0.2440   -9.0489    0.0000 C   0  0  0  0  0  0  0  0  0  0  0  0
    0.9585   -9.4614    0.0000 C   0  0  0  0  0  0  0  0  0  0  0  0
    1.6730   -9.0489    0.0000 C   0  0  0  0  0  0  0  0  0  0  0  0
    2.3875   -9.4614    0.0000 C   0  0  0  0  0  0  0  0  0  0  0  0
    2.3875  -10.2864    0.0000 C   0  0  0  0  0  0  0  0  0  0  0  0
    3.1019   -9.0489    0.0000 C   0  0  0  0  0  0  0  0  0  0  0  0
    3.8164   -9.4614    0.0000 C   0  0  0  0  0  0  0  0  0  0  0  0
    4.5309   -9.0489    0.0000 C   0  0  0  0  0  0  0  0  0  0  0  0
    5.2453   -9.4614    0.0000 C   0  0  0  0  0  0  0  0  0  0  0  0
    5.2453  -10.2864    0.0000 C   0  0  0  0  0  0  0  0  0  0  0  0
    5.9598   -9.0489    0.0000 C   0  0  0  0  0  0  0  0  0  0  0  0
    6.6743   -9.4614    0.0000 C   0  0  0  0  0  0  0  0  0  0  0  0
    7.3888   -9.0489    0.0000 C   0  0  0  0  0  0  0  0  0  0  0  0
    8.1032   -9.4614    0.0000 C   0  0  0  0  0  0  0  0  0  0  0  0
    8.3854   -8.6862    0.0000 C   0  0  0  0  0  0  0  0  0  0  0  0
    7.5729  -10.0934    0.0000 C   0  0  0  0  0  0  0  0  0  0  0  0
    7.8551  -10.8686    0.0000 C   0  0  0  0  0  0  0  0  0  0  0  0
    8.6676  -11.0119    0.0000 C   0  0  0  0  0  0  0  0  0  0  0  0
    9.1979  -10.3799    0.0000 C   0  0  0  0  0  0  0  0  0  0  0  0
   10.0103  -10.5232    0.0000 C   0  0  0  0  0  0  0  0  0  0  0  0
   10.5406   -9.8912    0.0000 C   0  0  0  0  0  0  0  0  0  0  0  0
   10.2925  -11.2984    0.0000 C   0  0  0  0  0  0  0  0  0  0  0  0
   11.1050  -11.4417    0.0000 C   0  0  0  0  0  0  0  0  0  0  0  0
    9.7622  -11.9304    0.0000 C   0  0  0  0  0  0  0  0  0  0  0  0
   10.0444  -12.7057    0.0000 O   0  0  0  0  0  0  0  0  0  0  0  0
   10.8568  -12.8489    0.0000 C   0  0  0  0  0  0  0  0  0  0  0  0
   11.3871  -12.2169    0.0000 C   0  0  0  0  0  0  0  0  0  0  0  0
   11.1390  -13.6242    0.0000 O   0  0  0  0  0  0  0  0  0  0  0  0
    8.9497  -11.7871    0.0000 C   0  0  0  0  0  0  0  0  0  0  0  0
    8.4194  -12.4191    0.0000 C   0  0  0  0  0  0  0  0  0  0  0  0
    8.9157   -9.6047    0.0000 O   0  0  0  0  0  0  0  0  0  0  0  0
  1  2  1  0  0  0  0
  2  3  1  0  0  0  0
  2  4  1  0  0  0  0
  4  5  1  0  0  0  0
  5  6  1  0  0  0  0
  6  7  1  0  0  0  0
  7  8  1  0  0  0  0
  7  9  1  0  0  0  0
  9 10  1  0  0  0  0
 10 11  1  0  0  0  0
 11 12  1  0  0  0  0
 12 13  1  0  0  0  0
 12 14  1  0  0  0  0
 14 15  1  0  0  0  0
 15 16  1  0  0  0  0
 16 17  1  0  0  0  0
 17 18  1  0  0  0  0
 19 17  1  0  0  0  0
 20 19  1  0  0  0  0
 21 20  1  0  0  0  0
 21 22  2  0  0  0  0
 22 23  1  0  0  0  0
 23 24  1  0  0  0  0
 23 25  2  0  0  0  0
 25 26  1  0  0  0  0
 25 27  1  0  0  0  0
 27 28  1  0  0  0  0
 28 29  1  0  0  0  0
 29 30  1  0  0  0  0
 29 31  2  0  0  0  0
 27 32  2  0  0  0  0
 32 21  1  0  0  0  0
 32 33  1  0  0  0  0
 34 22  1  0  0  0  0
 17 34  1  0  0  0  0
M  END
> <RowID>
1464

> <Original_SMILES>
CC(C)CCCC(C)CCCC(C)CCCC1(C)CCC2=C(O1)C(C)=C(C)C(OC(C)=O)=C2C

> <Canonical_QSARr>
CC(C)CCCC(C)CCCC(C)CCCC1(C)CCC2=C(O1)C(C)=C(C)C(OC(C)=O)=C2C

> <InChI_Code_QSARr>
InChI=1S/C31H52O3/c1-21(2)13-10-14-22(3)15-11-16-23(4)17-12-19-31(9)20-18-28-26(7)29(33-27(8)32)24(5)25(6)30(28)34-31/h21-23H,10-20H2,1-9H3

> <InChI Key_QSARr>
ZAKOWWREFLAJOT-UHFFFAOYSA-N

> <Salt_Solvent>


> <Salt_Solvent_ID>
0

> <Number of connected components>
1

$$$$
Molecule_1465
  Mrv2316 01072400032D          

 22 21  0  0  0  0            999 V2000
    8.4710    5.7158    0.0000 C   0  0  0  0  0  0  0  0  0  0  0  0
    9.1855    6.1283    0.0000 C   0  0  0  0  0  0  0  0  0  0  0  0
    9.1855    6.9533    0.0000 C   0  0  0  0  0  0  0  0  0  0  0  0
    9.9000    5.7158    0.0000 C   0  0  0  0  0  0  0  0  0  0  0  0
    9.9000    4.8908    0.0000 O   0  0  0  0  0  0  0  0  0  0  0  0
   10.6145    6.1283    0.0000 O   0  0  0  0  0  0  0  0  0  0  0  0
   11.3289    5.7158    0.0000 C   0  0  0  0  0  0  0  0  0  0  0  0
   12.0434    6.1283    0.0000 C   0  0  0  0  0  0  0  0  0  0  0  0
   12.7579    5.7158    0.0000 C   0  0  0  0  0  0  0  0  0  0  0  0
   13.4723    6.1283    0.0000 C   0  0  0  0  0  0  0  0  0  0  0  0
   14.1868    5.7158    0.0000 C   0  0  0  0  0  0  0  0  0  0  0  0
   14.9013    6.1283    0.0000 C   0  0  0  0  0  0  0  0  0  0  0  0
   15.6158    5.7158    0.0000 C   0  0  0  0  0  0  0  0  0  0  0  0
   16.3302    6.1283    0.0000 C   0  0  0  0  0  0  0  0  0  0  0  0
   17.0447    5.7158    0.0000 C   0  0  0  0  0  0  0  0  0  0  0  0
   17.7592    6.1283    0.0000 C   0  0  0  0  0  0  0  0  0  0  0  0
   18.4736    5.7158    0.0000 C   0  0  0  0  0  0  0  0  0  0  0  0
   19.1881    6.1283    0.0000 C   0  0  0  0  0  0  0  0  0  0  0  0
   19.9026    5.7158    0.0000 C   0  0  0  0  0  0  0  0  0  0  0  0
   20.6171    6.1283    0.0000 C   0  0  0  0  0  0  0  0  0  0  0  0
   21.3315    5.7158    0.0000 C   0  0  0  0  0  0  0  0  0  0  0  0
   22.0460    6.1283    0.0000 C   0  0  0  0  0  0  0  0  0  0  0  0
  1  2  1  0  0  0  0
  2  3  2  0  0  0  0
  2  4  1  0  0  0  0
  4  5  2  0  0  0  0
  4  6  1  0  0  0  0
  6  7  1  0  0  0  0
  7  8  1  0  0  0  0
  8  9  1  0  0  0  0
  9 10  1  0  0  0  0
 10 11  1  0  0  0  0
 11 12  1  0  0  0  0
 12 13  1  0  0  0  0
 13 14  1  0  0  0  0
 14 15  1  0  0  0  0
 15 16  1  0  0  0  0
 16 17  1  0  0  0  0
 17 18  1  0  0  0  0
 18 19  1  0  0  0  0
 19 20  1  0  0  0  0
 20 21  1  0  0  0  0
 21 22  1  0  0  0  0
M  END
> <RowID>
1465

> <Original_SMILES>
CC(=C)C(=O)OCCCCCCCCCCCCCCCC

> <Canonical_QSARr>
CC(=C)C(=O)OCCCCCCCCCCCCCCCC

> <InChI_Code_QSARr>
InChI=1S/C20H38O2/c1-4-5-6-7-8-9-10-11-12-13-14-15-16-17-18-22-20(21)19(2)3/h2,4-18H2,1,3H3

> <InChI Key_QSARr>
ZNAOFAIBVOMLPV-UHFFFAOYSA-N

> <Salt_Solvent>


> <Salt_Solvent_ID>
0

> <Number of connected components>
1

$$$$
Molecule_1466
  Mrv2316 01072400032D          

 13 13  0  0  0  0            999 V2000
   -0.0000   -1.4596    0.0000 C   0  0  0  0  0  0  0  0  0  0  0  0
   -0.0000   -0.6346    0.0000 C   0  0  0  0  0  0  0  0  0  0  0  0
   -0.7145   -0.2221    0.0000 O   0  0  0  0  0  0  0  0  0  0  0  0
    0.7145   -0.2221    0.0000 C   0  0  0  0  0  0  0  0  0  0  0  0
    0.7145    0.6029    0.0000 C   0  0  0  0  0  0  0  0  0  0  0  0
    1.4289    1.0154    0.0000 O   0  0  0  0  0  0  0  0  0  0  0  0
    1.4289    1.8404    0.0000 C   0  0  0  0  0  0  0  0  0  0  0  0
    0.7145    2.2529    0.0000 C   0  0  0  0  0  0  0  0  0  0  0  0
    0.7145    3.0779    0.0000 O   0  0  0  0  0  0  0  0  0  0  0  0
   -0.0000    1.8404    0.0000 C   0  0  0  0  0  0  0  0  0  0  0  0
   -0.7145    2.2529    0.0000 O   0  0  0  0  0  0  0  0  0  0  0  0
   -0.0000    1.0154    0.0000 C   0  0  0  0  0  0  0  0  0  0  0  0
   -0.7145    0.6029    0.0000 O   0  0  0  0  0  0  0  0  0  0  0  0
  1  2  1  0  0  0  0
  2  3  1  0  0  0  0
  2  4  1  0  0  0  0
  4  5  1  0  0  0  0
  6  5  1  0  0  0  0
  7  6  1  0  0  0  0
  8  7  1  0  0  0  0
  8  9  1  0  0  0  0
 10  8  1  0  0  0  0
 10 11  1  0  0  0  0
 12 10  1  0  0  0  0
  5 12  1  0  0  0  0
 12 13  1  0  0  0  0
M  END
> <RowID>
1466

> <Original_SMILES>
CC(O)CC1OCC(O)C(O)C1O

> <Canonical_QSARr>
CC(O)CC1OCC(O)C(O)C1O

> <InChI_Code_QSARr>
InChI=1S/C8H16O5/c1-4(9)2-6-8(12)7(11)5(10)3-13-6/h4-12H,2-3H2,1H3

> <InChI Key_QSARr>
KOGFZZYPPGQZFZ-UHFFFAOYSA-N

> <Salt_Solvent>


> <Salt_Solvent_ID>
0

> <Number of connected components>
1

$$$$
Molecule_1468
  Mrv2316 01072400032D          

 18 19  0  0  0  0            999 V2000
    4.9616   -3.6438    0.0000 C   0  0  0  0  0  0  0  0  0  0  0  0
    4.2471   -4.0563    0.0000 C   0  0  0  0  0  0  0  0  0  0  0  0
    4.2471   -4.8813    0.0000 C   0  0  0  0  0  0  0  0  0  0  0  0
    4.2471   -5.7062    0.0000 N   0  0  0  0  0  0  0  0  0  0  0  0
    3.5327   -3.6438    0.0000 C   0  0  0  0  0  0  0  0  0  0  0  0
    3.5327   -2.8187    0.0000 C   0  0  0  0  0  0  0  0  0  0  0  0
    2.8182   -2.4063    0.0000 C   0  0  0  0  0  0  0  0  0  0  0  0
    2.8182   -1.5813    0.0000 C   0  0  0  0  0  0  0  0  0  0  0  0
    3.5327   -1.1687    0.0000 O   0  0  0  0  0  0  0  0  0  0  0  0
    2.1037   -1.1688    0.0000 C   0  0  0  0  0  0  0  0  0  0  0  0
    2.1037   -0.3437    0.0000 C   0  0  0  0  0  0  0  0  0  0  0  0
    1.3892    0.0687    0.0000 C   0  0  0  0  0  0  0  0  0  0  0  0
    0.6748   -0.3438    0.0000 C   0  0  0  0  0  0  0  0  0  0  0  0
    0.6748   -1.1688    0.0000 C   0  0  0  0  0  0  0  0  0  0  0  0
    1.3892   -1.5813    0.0000 C   0  0  0  0  0  0  0  0  0  0  0  0
    2.1037   -2.8188    0.0000 C   0  0  0  0  0  0  0  0  0  0  0  0
    2.1037   -3.6438    0.0000 C   0  0  0  0  0  0  0  0  0  0  0  0
    2.8182   -4.0563    0.0000 C   0  0  0  0  0  0  0  0  0  0  0  0
  1  2  1  0  0  0  0
  2  3  1  0  0  0  0
  3  4  3  0  0  0  0
  2  5  1  0  0  0  0
  6  5  2  0  0  0  0
  7  6  1  0  0  0  0
  7  8  1  0  0  0  0
  8  9  2  0  0  0  0
  8 10  1  0  0  0  0
 11 10  1  0  0  0  0
 12 11  2  0  0  0  0
 13 12  1  0  0  0  0
 14 13  2  0  0  0  0
 15 14  1  0  0  0  0
 10 15  2  0  0  0  0
 16  7  2  0  0  0  0
 17 16  1  0  0  0  0
 18 17  2  0  0  0  0
  5 18  1  0  0  0  0
M  END
> <RowID>
1468

> <Original_SMILES>
CC(C#N)C1=CC(=CC=C1)C(=O)C1C=CC=CC=1

> <Canonical_QSARr>
CC(C#N)C1=CC(=CC=C1)C(=O)C1C=CC=CC=1

> <InChI_Code_QSARr>
InChI=1S/C16H13NO/c1-12(11-17)14-8-5-9-15(10-14)16(18)13-6-3-2-4-7-13/h2-10,12H,1H3

> <InChI Key_QSARr>
RGYOCHMZSLUCNP-UHFFFAOYSA-N

> <Salt_Solvent>


> <Salt_Solvent_ID>
0

> <Number of connected components>
1

$$$$
Molecule_1469
  Mrv2316 01072400032D          

  9  9  0  0  0  0            999 V2000
   -0.8732    1.0542    0.0000 O   0  0  0  0  0  0  0  0  0  0  0  0
   -0.1588    0.6417    0.0000 C   0  0  0  0  0  0  0  0  0  0  0  0
   -0.1588   -0.1833    0.0000 C   0  0  0  0  0  0  0  0  0  0  0  0
    0.5557   -0.5958    0.0000 C   0  0  0  0  0  0  0  0  0  0  0  0
    1.2702   -0.1833    0.0000 C   0  0  0  0  0  0  0  0  0  0  0  0
    1.2702    0.6417    0.0000 C   0  0  0  0  0  0  0  0  0  0  0  0
    0.5557    1.0542    0.0000 C   0  0  0  0  0  0  0  0  0  0  0  0
    0.5557    1.8792    0.0000 C   0  0  0  0  0  0  0  0  0  0  0  0
   -0.1588    2.2917    0.0000 O   0  0  0  0  0  0  0  0  0  0  0  0
  1  2  1  0  0  0  0
  3  2  2  0  0  0  0
  4  3  1  0  0  0  0
  5  4  2  0  0  0  0
  6  5  1  0  0  0  0
  7  6  2  0  0  0  0
  2  7  1  0  0  0  0
  7  8  1  0  0  0  0
  8  9  2  0  0  0  0
M  END
> <RowID>
1469

> <Original_SMILES>
OC1=CC=CC=C1C=O

> <Canonical_QSARr>
OC1=CC=CC=C1C=O

> <InChI_Code_QSARr>
InChI=1S/C7H6O2/c8-5-6-3-1-2-4-7(6)9/h1-5,9H

> <InChI Key_QSARr>
SMQUZDBALVYZAC-UHFFFAOYSA-N

> <Salt_Solvent>


> <Salt_Solvent_ID>
0

> <Number of connected components>
1

$$$$
Molecule_1470
  Mrv2316 01072400032D          

  5  4  0  0  0  0            999 V2000
    2.0625   -0.7145    0.0000 O   0  0  0  0  0  0  0  0  0  0  0  0
    1.2375   -0.7145    0.0000 S   0  0  0  0  0  0  0  0  0  0  0  0
    0.8250   -1.4289    0.0000 O   0  0  0  0  0  0  0  0  0  0  0  0
    0.8250   -0.0000    0.0000 C   0  0  0  0  0  0  0  0  0  0  0  0
    0.0000   -0.0000    0.0000 O   0  0  0  0  0  0  0  0  0  0  0  0
  1  2  1  0  0  0  0
  2  3  2  0  0  0  0
  2  4  1  0  0  0  0
  4  5  1  0  0  0  0
M  END
> <RowID>
1470

> <Original_SMILES>
[Na+].[O-]S(=O)CO

> <Canonical_QSARr>
OCS(O)=O

> <InChI_Code_QSARr>
InChI=1S/CH4O3S/c2-1-5(3)4/h2H,1H2,(H,3,4)

> <InChI Key_QSARr>
SBGKURINHGJRFN-UHFFFAOYSA-N

> <Salt_Solvent>
[Na+]

> <Salt_Solvent_ID>
110

> <Number of connected components>
2

$$$$
Molecule_1471
  Mrv2316 01072400032D          

 16 17  0  0  0  0            999 V2000
    1.4289   -1.5984    0.0000 O   0  0  0  0  0  0  0  0  0  0  0  0
    2.1434   -1.1859    0.0000 C   0  0  0  0  0  0  0  0  0  0  0  0
    2.1434   -0.3609    0.0000 C   0  0  0  0  0  0  0  0  0  0  0  0
    2.8579    0.0516    0.0000 C   0  0  0  0  0  0  0  0  0  0  0  0
    2.8579    0.8766    0.0000 C   0  0  0  0  0  0  0  0  0  0  0  0
    2.1434    1.2891    0.0000 C   0  0  0  0  0  0  0  0  0  0  0  0
    2.1434    2.1141    0.0000 F   0  0  0  0  0  0  0  0  0  0  0  0
    1.4289    0.8766    0.0000 C   0  0  0  0  0  0  0  0  0  0  0  0
    1.4289    0.0516    0.0000 C   0  0  0  0  0  0  0  0  0  0  0  0
    2.8579   -1.5984    0.0000 C   0  0  0  0  0  0  0  0  0  0  0  0
    2.8579   -2.4234    0.0000 C   0  0  0  0  0  0  0  0  0  0  0  0
    3.5724   -2.8359    0.0000 C   0  0  0  0  0  0  0  0  0  0  0  0
    4.2868   -2.4234    0.0000 C   0  0  0  0  0  0  0  0  0  0  0  0
    5.0013   -2.8359    0.0000 F   0  0  0  0  0  0  0  0  0  0  0  0
    4.2868   -1.5984    0.0000 C   0  0  0  0  0  0  0  0  0  0  0  0
    3.5724   -1.1859    0.0000 C   0  0  0  0  0  0  0  0  0  0  0  0
  1  2  2  0  0  0  0
  2  3  1  0  0  0  0
  4  3  1  0  0  0  0
  5  4  2  0  0  0  0
  6  5  1  0  0  0  0
  6  7  1  0  0  0  0
  8  6  2  0  0  0  0
  9  8  1  0  0  0  0
  3  9  2  0  0  0  0
  2 10  1  0  0  0  0
 11 10  1  0  0  0  0
 12 11  2  0  0  0  0
 13 12  1  0  0  0  0
 13 14  1  0  0  0  0
 15 13  2  0  0  0  0
 16 15  1  0  0  0  0
 10 16  2  0  0  0  0
M  END
> <RowID>
1471

> <Original_SMILES>
O=C(C1C=CC(F)=CC=1)C1C=CC(F)=CC=1

> <Canonical_QSARr>
O=C(C1C=CC(F)=CC=1)C1C=CC(F)=CC=1

> <InChI_Code_QSARr>
InChI=1S/C13H8F2O/c14-11-5-1-9(2-6-11)13(16)10-3-7-12(15)8-4-10/h1-8H

> <InChI Key_QSARr>
LSQARZALBDFYQZ-UHFFFAOYSA-N

> <Salt_Solvent>


> <Salt_Solvent_ID>
0

> <Number of connected components>
1

$$$$
Molecule_1472
  Mrv2316 01072400032D          

 18 17  0  0  0  0            999 V2000
    5.4730    3.9849    0.0000 C   0  0  0  0  0  0  0  0  0  0  0  0
    6.1875    3.5724    0.0000 C   0  0  0  0  0  0  0  0  0  0  0  0
    6.9020    3.9849    0.0000 C   0  0  0  0  0  0  0  0  0  0  0  0
    7.6164    3.5724    0.0000 C   0  0  0  0  0  0  0  0  0  0  0  0
    8.3309    3.9849    0.0000 C   0  0  0  0  0  0  0  0  0  0  0  0
    9.0454    3.5724    0.0000 C   0  0  0  0  0  0  0  0  0  0  0  0
    9.7598    3.9849    0.0000 C   0  0  0  0  0  0  0  0  0  0  0  0
   10.4743    3.5724    0.0000 C   0  0  0  0  0  0  0  0  0  0  0  0
   11.1888    3.9849    0.0000 C   0  0  0  0  0  0  0  0  0  0  0  0
   11.9032    3.5724    0.0000 C   0  0  0  0  0  0  0  0  0  0  0  0
   12.6177    3.9849    0.0000 C   0  0  0  0  0  0  0  0  0  0  0  0
   13.3322    3.5724    0.0000 C   0  0  0  0  0  0  0  0  0  0  0  0
   14.0467    3.9849    0.0000 C   0  0  0  0  0  0  0  0  0  0  0  0
   14.7611    3.5724    0.0000 C   0  0  0  0  0  0  0  0  0  0  0  0
   15.4756    3.9849    0.0000 N   0  3  0  0  0  0  0  0  0  0  0  0
   16.1901    4.3974    0.0000 C   0  0  0  0  0  0  0  0  0  0  0  0
   15.8881    3.2704    0.0000 C   0  0  0  0  0  0  0  0  0  0  0  0
   15.0631    4.6994    0.0000 O   0  5  0  0  0  0  0  0  0  0  0  0
  1  2  1  0  0  0  0
  2  3  1  0  0  0  0
  3  4  1  0  0  0  0
  4  5  1  0  0  0  0
  5  6  1  0  0  0  0
  6  7  1  0  0  0  0
  7  8  1  0  0  0  0
  8  9  1  0  0  0  0
  9 10  1  0  0  0  0
 10 11  1  0  0  0  0
 11 12  1  0  0  0  0
 12 13  1  0  0  0  0
 13 14  1  0  0  0  0
 14 15  1  0  0  0  0
 15 16  1  0  0  0  0
 15 17  1  0  0  0  0
 15 18  1  0  0  0  0
M  CHG  2  15   1  18  -1
M  END
> <RowID>
1472

> <Original_SMILES>
CCCCCCCCCCCCCC[N+](C)(C)[O-]

> <Canonical_QSARr>
CCCCCCCCCCCCCC[N+](C)(C)[O-]

> <InChI_Code_QSARr>
InChI=1S/C16H35NO/c1-4-5-6-7-8-9-10-11-12-13-14-15-16-17(2,3)18/h4-16H2,1-3H3

> <InChI Key_QSARr>
ONHFWHCMZAJCFB-UHFFFAOYSA-N

> <Salt_Solvent>


> <Salt_Solvent_ID>
0

> <Number of connected components>
1

$$$$
Molecule_1473
  Mrv2316 01072400032D          

 13 12  0  0  0  0            999 V2000
    4.2355    3.2704    0.0000 O   0  5  0  0  0  0  0  0  0  0  0  0
    4.9500    2.8579    0.0000 N   0  3  0  0  0  0  0  0  0  0  0  0
    4.9500    2.0329    0.0000 O   0  0  0  0  0  0  0  0  0  0  0  0
    5.6645    3.2704    0.0000 O   0  0  0  0  0  0  0  0  0  0  0  0
    6.3789    2.8579    0.0000 C   0  0  0  0  0  0  0  0  0  0  0  0
    7.0934    3.2704    0.0000 C   0  0  0  0  0  0  0  0  0  0  0  0
    7.8079    2.8579    0.0000 O   0  0  0  0  0  0  0  0  0  0  0  0
    8.5224    3.2704    0.0000 C   0  0  0  0  0  0  0  0  0  0  0  0
    9.2368    2.8579    0.0000 C   0  0  0  0  0  0  0  0  0  0  0  0
    9.9513    3.2704    0.0000 O   0  0  0  0  0  0  0  0  0  0  0  0
   10.6658    2.8579    0.0000 N   0  3  0  0  0  0  0  0  0  0  0  0
   11.3802    3.2704    0.0000 O   0  5  0  0  0  0  0  0  0  0  0  0
   10.6658    2.0329    0.0000 O   0  0  0  0  0  0  0  0  0  0  0  0
  1  2  1  0  0  0  0
  2  3  2  0  0  0  0
  2  4  1  0  0  0  0
  4  5  1  0  0  0  0
  5  6  1  0  0  0  0
  6  7  1  0  0  0  0
  7  8  1  0  0  0  0
  8  9  1  0  0  0  0
  9 10  1  0  0  0  0
 10 11  1  0  0  0  0
 11 12  1  0  0  0  0
 11 13  2  0  0  0  0
M  CHG  4   1  -1   2   1  11   1  12  -1
M  END
> <RowID>
1473

> <Original_SMILES>
[O-][N+](=O)OCCOCCO[N+]([O-])=O

> <Canonical_QSARr>
[O-][N+](=O)OCCOCCO[N+]([O-])=O

> <InChI_Code_QSARr>
InChI=1S/C4H8N2O7/c7-5(8)12-3-1-11-2-4-13-6(9)10/h1-4H2

> <InChI Key_QSARr>
LYAGTVMJGHTIDH-UHFFFAOYSA-N

> <Salt_Solvent>


> <Salt_Solvent_ID>
0

> <Number of connected components>
1

$$$$
Molecule_1474
  Mrv2316 01072400032D          

 13 12  0  0  0  0            999 V2000
    3.5211    2.8579    0.0000 C   0  0  0  0  0  0  0  0  0  0  0  0
    4.2355    3.2704    0.0000 C   0  0  0  0  0  0  0  0  0  0  0  0
    4.9500    2.8579    0.0000 C   0  0  0  0  0  0  0  0  0  0  0  0
    5.6645    3.2704    0.0000 C   0  0  0  0  0  0  0  0  0  0  0  0
    6.3789    2.8579    0.0000 C   0  0  0  0  0  0  0  0  0  0  0  0
    7.0934    3.2704    0.0000 C   0  0  0  0  0  0  0  0  0  0  0  0
    7.8079    2.8579    0.0000 C   0  0  0  0  0  0  0  0  0  0  0  0
    8.5224    3.2704    0.0000 C   0  0  0  0  0  0  0  0  0  0  0  0
    9.2368    2.8579    0.0000 C   0  0  0  0  0  0  0  0  0  0  0  0
    9.9513    3.2704    0.0000 C   0  0  0  0  0  0  0  0  0  0  0  0
    9.9513    4.0954    0.0000 O   0  0  0  0  0  0  0  0  0  0  0  0
   10.6658    2.8579    0.0000 O   0  0  0  0  0  0  0  0  0  0  0  0
   11.3802    3.2704    0.0000 C   0  0  0  0  0  0  0  0  0  0  0  0
  1  2  1  0  0  0  0
  2  3  1  0  0  0  0
  3  4  1  0  0  0  0
  4  5  1  0  0  0  0
  5  6  1  0  0  0  0
  6  7  1  0  0  0  0
  7  8  1  0  0  0  0
  8  9  1  0  0  0  0
  9 10  1  0  0  0  0
 10 11  2  0  0  0  0
 10 12  1  0  0  0  0
 12 13  1  0  0  0  0
M  END
> <RowID>
1474

> <Original_SMILES>
CCCCCCCCCC(=O)OC

> <Canonical_QSARr>
CCCCCCCCCC(=O)OC

> <InChI_Code_QSARr>
InChI=1S/C11H22O2/c1-3-4-5-6-7-8-9-10-11(12)13-2/h3-10H2,1-2H3

> <InChI Key_QSARr>
YRHYCMZPEVDGFQ-UHFFFAOYSA-N

> <Salt_Solvent>


> <Salt_Solvent_ID>
0

> <Number of connected components>
1

$$$$
Molecule_1475
  Mrv2316 01072400032D          

 15 14  0  0  0  0            999 V2000
    0.1105    0.4125    0.0000 C   0  0  0  0  0  0  0  0  0  0  0  0
    0.8250    0.0000    0.0000 C   0  0  0  0  0  0  0  0  0  0  0  0
    1.5395    0.4125    0.0000 Si  0  0  0  0  0  0  0  0  0  0  0  0
    1.9520   -0.3020    0.0000 O   0  0  0  0  0  0  0  0  0  0  0  0
    1.5395   -1.0164    0.0000 C   0  0  0  0  0  0  0  0  0  0  0  0
    1.9520   -1.7309    0.0000 C   0  0  0  0  0  0  0  0  0  0  0  0
    0.7145   -1.0164    0.0000 O   0  0  0  0  0  0  0  0  0  0  0  0
    1.1270    1.1270    0.0000 O   0  0  0  0  0  0  0  0  0  0  0  0
    1.5395    1.8414    0.0000 C   0  0  0  0  0  0  0  0  0  0  0  0
    1.1270    2.5559    0.0000 C   0  0  0  0  0  0  0  0  0  0  0  0
    2.3645    1.8414    0.0000 O   0  0  0  0  0  0  0  0  0  0  0  0
    2.2540    0.8250    0.0000 O   0  0  0  0  0  0  0  0  0  0  0  0
    2.9684    0.4125    0.0000 C   0  0  0  0  0  0  0  0  0  0  0  0
    2.9684   -0.4125    0.0000 C   0  0  0  0  0  0  0  0  0  0  0  0
    3.6829    0.8250    0.0000 O   0  0  0  0  0  0  0  0  0  0  0  0
  1  2  1  0  0  0  0
  2  3  1  0  0  0  0
  3  4  1  0  0  0  0
  4  5  1  0  0  0  0
  5  6  1  0  0  0  0
  5  7  2  0  0  0  0
  3  8  1  0  0  0  0
  8  9  1  0  0  0  0
  9 10  1  0  0  0  0
  9 11  2  0  0  0  0
  3 12  1  0  0  0  0
 12 13  1  0  0  0  0
 13 14  1  0  0  0  0
 13 15  2  0  0  0  0
M  END
> <RowID>
1475

> <Original_SMILES>
CC[Si](OC(C)=O)(OC(C)=O)OC(C)=O

> <Canonical_QSARr>
CC[Si](OC(C)=O)(OC(C)=O)OC(C)=O

> <InChI_Code_QSARr>
InChI=1S/C8H14O6Si/c1-5-15(12-6(2)9,13-7(3)10)14-8(4)11/h5H2,1-4H3

> <InChI Key_QSARr>
KXJLGCBCRCSXQF-UHFFFAOYSA-N

> <Salt_Solvent>


> <Salt_Solvent_ID>
0

> <Number of connected components>
1

$$$$
Molecule_1476
  Mrv2316 01072400032D          

 17 16  0  0  0  0            999 V2000
    1.3776    2.4454    0.0000 O   0  0  0  0  0  0  0  0  0  0  0  0
    2.0921    2.8579    0.0000 S   0  0  0  0  0  0  0  0  0  0  0  0
    2.5046    2.1434    0.0000 O   0  0  0  0  0  0  0  0  0  0  0  0
    1.6796    3.5724    0.0000 O   0  0  0  0  0  0  0  0  0  0  0  0
    2.8066    3.2704    0.0000 O   0  0  0  0  0  0  0  0  0  0  0  0
    3.5211    2.8579    0.0000 C   0  0  0  0  0  0  0  0  0  0  0  0
    4.2355    3.2704    0.0000 C   0  0  0  0  0  0  0  0  0  0  0  0
    4.9500    2.8579    0.0000 C   0  0  0  0  0  0  0  0  0  0  0  0
    5.6645    3.2704    0.0000 C   0  0  0  0  0  0  0  0  0  0  0  0
    6.3789    2.8579    0.0000 C   0  0  0  0  0  0  0  0  0  0  0  0
    7.0934    3.2704    0.0000 C   0  0  0  0  0  0  0  0  0  0  0  0
    7.8079    2.8579    0.0000 C   0  0  0  0  0  0  0  0  0  0  0  0
    8.5224    3.2704    0.0000 C   0  0  0  0  0  0  0  0  0  0  0  0
    9.2368    2.8579    0.0000 C   0  0  0  0  0  0  0  0  0  0  0  0
    9.9513    3.2704    0.0000 C   0  0  0  0  0  0  0  0  0  0  0  0
   10.6658    2.8579    0.0000 C   0  0  0  0  0  0  0  0  0  0  0  0
   11.3802    3.2704    0.0000 C   0  0  0  0  0  0  0  0  0  0  0  0
  1  2  1  0  0  0  0
  2  3  2  0  0  0  0
  2  4  2  0  0  0  0
  2  5  1  0  0  0  0
  5  6  1  0  0  0  0
  6  7  1  0  0  0  0
  7  8  1  0  0  0  0
  8  9  1  0  0  0  0
  9 10  1  0  0  0  0
 10 11  1  0  0  0  0
 11 12  1  0  0  0  0
 12 13  1  0  0  0  0
 13 14  1  0  0  0  0
 14 15  1  0  0  0  0
 15 16  1  0  0  0  0
 16 17  1  0  0  0  0
M  END
> <RowID>
1476

> <Original_SMILES>
[Li+].CCCCCCCCCCCCOS([O-])(=O)=O

> <Canonical_QSARr>
CCCCCCCCCCCCOS(O)(=O)=O

> <InChI_Code_QSARr>
InChI=1S/C12H26O4S/c1-2-3-4-5-6-7-8-9-10-11-12-16-17(13,14)15/h2-12H2,1H3,(H,13,14,15)

> <InChI Key_QSARr>
MOTZDAYCYVMXPC-UHFFFAOYSA-N

> <Salt_Solvent>
[Li+]

> <Salt_Solvent_ID>
30

> <Number of connected components>
2

$$$$
Molecule_1477
  Mrv2316 01072400032D          

  6  5  0  0  0  0            999 V2000
    2.0625    0.7145    0.0000 O   0  0  0  0  0  0  0  0  0  0  0  0
    1.2375    0.7145    0.0000 C   0  0  0  0  0  0  0  0  0  0  0  0
    0.8250    0.0000    0.0000 C   0  0  0  0  0  0  0  0  0  0  0  0
    0.0000    0.0000    0.0000 C   0  0  0  0  0  0  0  0  0  0  0  0
   -0.4125   -0.7145    0.0000 C   0  0  0  0  0  0  0  0  0  0  0  0
    0.0000   -1.4289    0.0000 O   0  0  0  0  0  0  0  0  0  0  0  0
  1  2  1  0  0  0  0
  3  2  1  4  0  0  0
  3  4  2  0  0  0  0
  4  5  1  0  0  0  0
  5  6  1  0  0  0  0
M  END
> <RowID>
1477

> <Original_SMILES>
OCC=CCO

> <Canonical_QSARr>
OCC=CCO

> <InChI_Code_QSARr>
InChI=1S/C4H8O2/c5-3-1-2-4-6/h1-2,5-6H,3-4H2

> <InChI Key_QSARr>
ORTVZLZNOYNASJ-UHFFFAOYSA-N

> <Salt_Solvent>


> <Salt_Solvent_ID>
0

> <Number of connected components>
1

$$$$
Molecule_1479
  Mrv2316 01072400032D          

 40 48  0  0  0  0            999 V2000
    2.6530   -0.3604    0.0000 N   0  0  0  0  0  0  0  0  0  0  0  0
    2.0060    0.1515    0.0000 C   0  0  0  0  0  0  0  0  0  0  0  0
    1.3018   -0.2784    0.0000 N   0  0  0  0  0  0  0  0  0  0  0  0
    0.8041   -1.2281    0.0000 C   0  0  0  0  0  0  0  0  0  0  0  0
    0.0097   -1.4507    0.0000 C   0  0  0  0  0  0  0  0  0  0  0  0
   -0.0241   -2.2750    0.0000 C   0  0  0  0  0  0  0  0  0  0  0  0
   -0.7549   -2.6578    0.0000 C   0  0  0  0  0  0  0  0  0  0  0  0
   -1.4519   -2.2164    0.0000 C   0  0  0  0  0  0  0  0  0  0  0  0
   -1.4180   -1.3921    0.0000 C   0  0  0  0  0  0  0  0  0  0  0  0
   -0.6872   -1.0092    0.0000 C   0  0  0  0  0  0  0  0  0  0  0  0
    0.7494   -2.5619    0.0000 C   0  0  0  0  0  0  0  0  0  0  0  0
    1.1792   -3.2661    0.0000 N   0  0  0  0  0  0  0  0  0  0  0  0
    2.1290   -3.7638    0.0000 C   0  0  0  0  0  0  0  0  0  0  0  0
    2.8157   -3.3066    0.0000 N   0  0  0  0  0  0  0  0  0  0  0  0
    3.4627   -3.8185    0.0000 C   0  0  0  0  0  0  0  0  0  0  0  0
    4.1669   -3.3887    0.0000 N   0  0  0  0  0  0  0  0  0  0  0  0
    4.6646   -2.4389    0.0000 C   0  0  0  0  0  0  0  0  0  0  0  0
    5.4590   -2.2164    0.0000 C   0  0  0  0  0  0  0  0  0  0  0  0
    5.4929   -1.3921    0.0000 C   0  0  0  0  0  0  0  0  0  0  0  0
    6.2237   -1.0092    0.0000 C   0  0  0  0  0  0  0  0  0  0  0  0
    6.9206   -1.4507    0.0000 C   0  0  0  0  0  0  0  0  0  0  0  0
    6.8868   -2.2750    0.0000 C   0  0  0  0  0  0  0  0  0  0  0  0
    6.1560   -2.6578    0.0000 C   0  0  0  0  0  0  0  0  0  0  0  0
    4.7194   -1.1052    0.0000 C   0  0  0  0  0  0  0  0  0  0  0  0
    4.2895   -0.4010    0.0000 N   0  0  0  0  0  0  0  0  0  0  0  0
    3.3398    0.0967    0.0000 C   0  0  0  0  0  0  0  0  0  0  0  0
    3.1172    0.8911    0.0000 C   0  0  0  0  0  0  0  0  0  0  0  0
    2.2929    0.9250    0.0000 C   0  0  0  0  0  0  0  0  0  0  0  0
    1.9101    1.6558    0.0000 C   0  0  0  0  0  0  0  0  0  0  0  0
    2.3515    2.3527    0.0000 C   0  0  0  0  0  0  0  0  0  0  0  0
    3.1758    2.3189    0.0000 C   0  0  0  0  0  0  0  0  0  0  0  0
    3.5587    1.5881    0.0000 C   0  0  0  0  0  0  0  0  0  0  0  0
    4.2075   -1.7522    0.0000 N   0  0  0  0  0  0  0  0  0  0  0  0
    3.1758   -4.5920    0.0000 C   0  0  0  0  0  0  0  0  0  0  0  0
    3.5587   -5.3228    0.0000 C   0  0  0  0  0  0  0  0  0  0  0  0
    3.1172   -6.0198    0.0000 C   0  0  0  0  0  0  0  0  0  0  0  0
    2.2929   -5.9859    0.0000 C   0  0  0  0  0  0  0  0  0  0  0  0
    1.9101   -5.2551    0.0000 C   0  0  0  0  0  0  0  0  0  0  0  0
    2.3515   -4.5582    0.0000 C   0  0  0  0  0  0  0  0  0  0  0  0
    1.2613   -1.9149    0.0000 N   0  0  0  0  0  0  0  0  0  0  0  0
  2  1  1  0  0  0  0
  2  3  2  0  0  0  0
  3  4  1  4  0  0  0
  5  4  1  0  0  0  0
  5  6  2  0  0  0  0
  6  7  1  0  0  0  0
  7  8  2  0  0  0  0
  8  9  1  0  0  0  0
  9 10  2  0  0  0  0
 10  5  1  0  0  0  0
 11  6  1  0  0  0  0
 11 12  2  0  0  0  0
 12 13  1  4  0  0  0
 14 13  1  0  0  0  0
 15 14  1  0  0  0  0
 15 16  2  0  0  0  0
 16 17  1  4  0  0  0
 18 17  1  0  0  0  0
 18 19  2  0  0  0  0
 19 20  1  0  0  0  0
 20 21  2  0  0  0  0
 21 22  1  0  0  0  0
 22 23  2  0  0  0  0
 23 18  1  0  0  0  0
 24 19  1  0  0  0  0
 24 25  2  0  0  0  0
 25 26  1  4  0  0  0
  1 26  1  0  0  0  0
 26 27  1  0  0  0  0
 28 27  2  0  0  0  0
 28  2  1  0  0  0  0
 29 28  1  0  0  0  0
 30 29  2  0  0  0  0
 31 30  1  0  0  0  0
 32 31  2  0  0  0  0
 27 32  1  0  0  0  0
 33 24  1  0  0  0  0
 17 33  2  0  0  0  0
 34 15  1  0  0  0  0
 34 35  2  0  0  0  0
 35 36  1  0  0  0  0
 36 37  2  0  0  0  0
 37 38  1  0  0  0  0
 38 39  2  0  0  0  0
 13 39  1  0  0  0  0
 39 34  1  0  0  0  0
 40 11  1  0  0  0  0
  4 40  2  0  0  0  0
M  END
> <RowID>
1479

> <Original_SMILES>
[Al+3].[Cl-].C1=CC=CC2C3[N-]C(N=C4N=C(N=C5[N-]C(N=C6N=C(N=3)C3=CC=CC=C36)C3C=CC=CC=35)C3=CC=CC=C34)C=21

> <Canonical_QSARr>
C1=CC=CC2C3NC(N=C4N=C(N=C5NC(N=C6N=C(N=3)C3C=CC=CC=36)C3=CC=CC=C35)C3C=CC=CC=34)C=21

> <InChI_Code_QSARr>
InChI=1S/C32H20N8/c1-2-10-18-17(9-1)25-33-26(18)38-28-21-13-5-6-14-22(21)30(35-28)40-32-24-16-8-7-15-23(24)31(36-32)39-29-20-12-4-3-11-19(20)27(34-29)37-25/h1-16,25,32H,(H,33,35,38,40)(H,34,36,37,39)

> <InChI Key_QSARr>
FPEPDCGCGQAUMV-UHFFFAOYSA-N

> <Salt_Solvent>
[Al+3].[Cl-]

> <Salt_Solvent_ID>
150

> <Number of connected components>
3

$$$$
Molecule_1480
  Mrv2316 01072400032D          

 18 18  0  0  0  0            999 V2000
    2.9880    0.0789    0.0000 C   0  0  0  0  0  0  0  0  0  0  0  0
    2.1686   -0.0169    0.0000 C   0  0  0  0  0  0  0  0  0  0  0  0
    2.4954   -0.7744    0.0000 C   0  0  0  0  0  0  0  0  0  0  0  0
    3.3148   -0.8702    0.0000 C   0  0  0  0  0  0  0  0  0  0  0  0
    2.3119    0.7956    0.0000 O   0  0  0  0  0  0  0  0  0  0  0  0
    1.8994    1.5101    0.0000 O   0  0  0  0  0  0  0  0  0  0  0  0
    1.1241    1.7922    0.0000 C   0  0  0  0  0  0  0  0  0  0  0  0
    1.6168    2.4540    0.0000 C   0  0  0  0  0  0  0  0  0  0  0  0
    0.6315    2.4540    0.0000 C   0  0  0  0  0  0  0  0  0  0  0  0
   -0.1880    2.3582    0.0000 C   0  0  0  0  0  0  0  0  0  0  0  0
    0.3489    1.5101    0.0000 O   0  0  0  0  0  0  0  0  0  0  0  0
   -0.0636    0.7956    0.0000 O   0  0  0  0  0  0  0  0  0  0  0  0
    0.0796   -0.0169    0.0000 C   0  0  0  0  0  0  0  0  0  0  0  0
   -0.7398    0.0789    0.0000 C   0  0  0  0  0  0  0  0  0  0  0  0
   -0.2471   -0.7744    0.0000 C   0  0  0  0  0  0  0  0  0  0  0  0
    0.2455   -1.4362    0.0000 C   0  0  0  0  0  0  0  0  0  0  0  0
    0.7116   -0.5472    0.0000 O   0  0  0  0  0  0  0  0  0  0  0  0
    1.5366   -0.5472    0.0000 O   0  0  0  0  0  0  0  0  0  0  0  0
  1  2  1  0  0  0  0
  2  3  1  0  0  0  0
  3  4  1  0  0  0  0
  5  2  1  0  0  0  0
  6  5  1  0  0  0  0
  7  6  1  0  0  0  0
  7  8  1  0  0  0  0
  7  9  1  0  0  0  0
  9 10  1  0  0  0  0
 11  7  1  0  0  0  0
 12 11  1  0  0  0  0
 13 12  1  0  0  0  0
 13 14  1  0  0  0  0
 13 15  1  0  0  0  0
 15 16  1  0  0  0  0
 17 13  1  0  0  0  0
 18 17  1  0  0  0  0
  2 18  1  0  0  0  0
M  END
> <RowID>
1480

> <Original_SMILES>
CC1(CC)OOC(C)(CC)OOC(C)(CC)OO1

> <Canonical_QSARr>
CC1(CC)OOC(C)(CC)OOC(C)(CC)OO1

> <InChI_Code_QSARr>
InChI=1S/C12H24O6/c1-7-10(4)13-15-11(5,8-2)17-18-12(6,9-3)16-14-10/h7-9H2,1-6H3

> <InChI Key_QSARr>
KVWLLOIEGKLBPA-UHFFFAOYSA-N

> <Salt_Solvent>


> <Salt_Solvent_ID>
0

> <Number of connected components>
1

$$$$
Molecule_1481
  Mrv2316 01072400032D          

 10 10  0  0  0  0            999 V2000
    0.7145   -1.4025    0.0000 N   0  0  0  0  0  0  0  0  0  0  0  0
    0.7145   -0.5775    0.0000 C   0  0  0  0  0  0  0  0  0  0  0  0
    0.7145    0.2475    0.0000 C   0  0  0  0  0  0  0  0  0  0  0  0
    1.4289    0.6600    0.0000 C   0  0  0  0  0  0  0  0  0  0  0  0
    1.4289    1.4850    0.0000 C   0  0  0  0  0  0  0  0  0  0  0  0
    0.7145    1.8975    0.0000 C   0  0  0  0  0  0  0  0  0  0  0  0
    0.7145    2.7225    0.0000 Br  0  0  0  0  0  0  0  0  0  0  0  0
    0.0000    1.4850    0.0000 C   0  0  0  0  0  0  0  0  0  0  0  0
    0.0000    0.6600    0.0000 C   0  0  0  0  0  0  0  0  0  0  0  0
   -0.7145    0.2475    0.0000 Cl  0  0  0  0  0  0  0  0  0  0  0  0
  1  2  3  0  0  0  0
  2  3  1  0  0  0  0
  4  3  1  0  0  0  0
  5  4  2  0  0  0  0
  6  5  1  0  0  0  0
  6  7  1  0  0  0  0
  8  6  2  0  0  0  0
  9  8  1  0  0  0  0
  3  9  2  0  0  0  0
  9 10  1  0  0  0  0
M  END
> <RowID>
1481

> <Original_SMILES>
N#CC1C=CC(Br)=CC=1Cl

> <Canonical_QSARr>
N#CC1C=CC(Br)=CC=1Cl

> <InChI_Code_QSARr>
InChI=1S/C7H3BrClN/c8-6-2-1-5(4-10)7(9)3-6/h1-3H

> <InChI Key_QSARr>
AYQBMZNSJPVADT-UHFFFAOYSA-N

> <Salt_Solvent>


> <Salt_Solvent_ID>
0

> <Number of connected components>
1

$$$$
Molecule_1482
  Mrv2316 01072400032D          

 10 10  0  0  0  0            999 V2000
    0.7145    2.8875    0.0000 O   0  0  0  0  0  0  0  0  0  0  0  0
    0.7145    2.0625    0.0000 P   0  0  0  0  0  0  0  0  0  0  0  0
   -0.1105    2.0625    0.0000 O   0  0  0  0  0  0  0  0  0  0  0  0
    1.5395    2.0625    0.0000 O   0  0  0  0  0  0  0  0  0  0  0  0
    0.7145    1.2375    0.0000 C   0  0  0  0  0  0  0  0  0  0  0  0
    0.0000    0.8250    0.0000 C   0  0  0  0  0  0  0  0  0  0  0  0
    0.0000   -0.0000    0.0000 C   0  0  0  0  0  0  0  0  0  0  0  0
    0.7145   -0.4125    0.0000 C   0  0  0  0  0  0  0  0  0  0  0  0
    1.4290    0.0000    0.0000 C   0  0  0  0  0  0  0  0  0  0  0  0
    1.4290    0.8250    0.0000 C   0  0  0  0  0  0  0  0  0  0  0  0
  1  2  1  0  0  0  0
  2  3  1  0  0  0  0
  2  4  2  0  0  0  0
  2  5  1  0  0  0  0
  6  5  2  0  0  0  0
  7  6  1  0  0  0  0
  8  7  2  0  0  0  0
  9  8  1  0  0  0  0
 10  9  2  0  0  0  0
  5 10  1  0  0  0  0
M  END
> <RowID>
1482

> <Original_SMILES>
[Zn+2].[O-]P([O-])(=O)C1C=CC=CC=1

> <Canonical_QSARr>
OP(O)(=O)C1C=CC=CC=1

> <InChI_Code_QSARr>
InChI=1S/C6H7O3P/c7-10(8,9)6-4-2-1-3-5-6/h1-5H,(H2,7,8,9)

> <InChI Key_QSARr>
QLZHNIAADXEJJP-UHFFFAOYSA-N

> <Salt_Solvent>
[Zn+2]

> <Salt_Solvent_ID>
300

> <Number of connected components>
2

$$$$
Molecule_1483
  Mrv2316 01072400032D          

 34 33  0  0  0  0            999 V2000
   10.9461    7.1447    0.0000 C   0  0  0  0  0  0  0  0  0  0  0  0
   11.6605    7.5572    0.0000 C   0  0  0  0  0  0  0  0  0  0  0  0
   12.3750    7.1447    0.0000 C   0  0  0  0  0  0  0  0  0  0  0  0
   13.0895    7.5572    0.0000 C   0  0  0  0  0  0  0  0  0  0  0  0
   13.8039    7.1447    0.0000 C   0  0  0  0  0  0  0  0  0  0  0  0
   14.5184    7.5572    0.0000 C   0  0  0  0  0  0  0  0  0  0  0  0
   15.2329    7.1447    0.0000 C   0  0  0  0  0  0  0  0  0  0  0  0
   15.9474    7.5572    0.0000 C   0  0  0  0  0  0  0  0  0  0  0  0
   16.6618    7.1447    0.0000 C   0  0  0  0  0  0  0  0  0  0  0  0
   17.3763    7.5572    0.0000 C   0  0  0  0  0  0  0  0  0  0  0  0
   18.0908    7.1447    0.0000 C   0  0  0  0  0  0  0  0  0  0  0  0
   18.8052    7.5572    0.0000 C   0  0  0  0  0  0  0  0  0  0  0  0
   19.5197    7.1447    0.0000 C   0  0  0  0  0  0  0  0  0  0  0  0
   20.2342    7.5572    0.0000 C   0  0  0  0  0  0  0  0  0  0  0  0
   20.9487    7.1447    0.0000 O   0  0  0  0  0  0  0  0  0  0  0  0
   21.6631    7.5572    0.0000 C   0  0  0  0  0  0  0  0  0  0  0  0
   21.6631    8.3822    0.0000 O   0  0  0  0  0  0  0  0  0  0  0  0
   22.3776    7.1447    0.0000 C   0  0  0  0  0  0  0  0  0  0  0  0
   23.0921    7.5572    0.0000 C   0  0  0  0  0  0  0  0  0  0  0  0
   23.8065    7.1447    0.0000 C   0  0  0  0  0  0  0  0  0  0  0  0
   24.5210    7.5572    0.0000 C   0  0  0  0  0  0  0  0  0  0  0  0
   25.2355    7.1447    0.0000 C   0  0  0  0  0  0  0  0  0  0  0  0
   25.9499    7.5572    0.0000 C   0  0  0  0  0  0  0  0  0  0  0  0
   26.6644    7.1447    0.0000 C   0  0  0  0  0  0  0  0  0  0  0  0
   27.3789    7.5572    0.0000 C   0  0  0  0  0  0  0  0  0  0  0  0
   28.0934    7.1447    0.0000 C   0  0  0  0  0  0  0  0  0  0  0  0
   28.8078    7.5572    0.0000 C   0  0  0  0  0  0  0  0  0  0  0  0
   28.8078    8.3822    0.0000 C   0  0  0  0  0  0  0  0  0  0  0  0
   29.5223    8.7947    0.0000 C   0  0  0  0  0  0  0  0  0  0  0  0
   29.5223    9.6197    0.0000 C   0  0  0  0  0  0  0  0  0  0  0  0
   30.2368   10.0322    0.0000 C   0  0  0  0  0  0  0  0  0  0  0  0
   30.2368   10.8572    0.0000 C   0  0  0  0  0  0  0  0  0  0  0  0
   30.9512   11.2697    0.0000 C   0  0  0  0  0  0  0  0  0  0  0  0
   30.9512   12.0947    0.0000 C   0  0  0  0  0  0  0  0  0  0  0  0
  1  2  1  0  0  0  0
  2  3  1  0  0  0  0
  3  4  1  0  0  0  0
  4  5  1  0  0  0  0
  5  6  1  0  0  0  0
  6  7  1  0  0  0  0
  7  8  1  0  0  0  0
  8  9  1  0  0  0  0
  9 10  1  0  0  0  0
 10 11  1  0  0  0  0
 11 12  1  0  0  0  0
 12 13  1  0  0  0  0
 13 14  1  0  0  0  0
 14 15  1  0  0  0  0
 15 16  1  0  0  0  0
 16 17  2  0  0  0  0
 16 18  1  0  0  0  0
 18 19  1  0  0  0  0
 19 20  1  0  0  0  0
 20 21  1  0  0  0  0
 21 22  1  0  0  0  0
 22 23  1  0  0  0  0
 23 24  1  0  0  0  0
 25 24  1  4  0  0  0
 25 26  2  0  0  0  0
 26 27  1  0  0  0  0
 27 28  1  0  0  0  0
 28 29  1  0  0  0  0
 29 30  1  0  0  0  0
 30 31  1  0  0  0  0
 31 32  1  0  0  0  0
 32 33  1  0  0  0  0
 33 34  1  0  0  0  0
M  END
> <RowID>
1483

> <Original_SMILES>
CCCCCCCCCCCCCCOC(=O)CCCCCCCC=CCCCCCCCC

> <Canonical_QSARr>
CCCCCCCCCCCCCCOC(=O)CCCCCCCC=CCCCCCCCC

> <InChI_Code_QSARr>
InChI=1S/C32H62O2/c1-3-5-7-9-11-13-15-17-18-19-20-22-24-26-28-30-32(33)34-31-29-27-25-23-21-16-14-12-10-8-6-4-2/h17-18H,3-16,19-31H2,1-2H3

> <InChI Key_QSARr>
DHZWALZKPWZSMA-UHFFFAOYSA-N

> <Salt_Solvent>


> <Salt_Solvent_ID>
0

> <Number of connected components>
1

$$$$
Molecule_1484
  Mrv2316 01072400032D          

 35 34  0  0  0  0            999 V2000
   17.8480   11.1296    0.0000 C   0  0  0  0  0  0  0  0  0  0  0  0
   18.5625   10.7171    0.0000 C   0  0  0  0  0  0  0  0  0  0  0  0
   19.2770   11.1296    0.0000 C   0  0  0  0  0  0  0  0  0  0  0  0
   19.9915   10.7171    0.0000 C   0  0  0  0  0  0  0  0  0  0  0  0
   20.7059   11.1296    0.0000 C   0  0  0  0  0  0  0  0  0  0  0  0
   21.4204   10.7171    0.0000 C   0  0  0  0  0  0  0  0  0  0  0  0
   22.1349   11.1296    0.0000 C   0  0  0  0  0  0  0  0  0  0  0  0
   22.8493   10.7171    0.0000 C   0  0  0  0  0  0  0  0  0  0  0  0
   23.5638   11.1296    0.0000 C   0  0  0  0  0  0  0  0  0  0  0  0
   24.2783   10.7171    0.0000 C   0  0  0  0  0  0  0  0  0  0  0  0
   24.9928   11.1296    0.0000 C   0  0  0  0  0  0  0  0  0  0  0  0
   25.7072   10.7171    0.0000 C   0  0  0  0  0  0  0  0  0  0  0  0
   26.4217   11.1296    0.0000 O   0  0  0  0  0  0  0  0  0  0  0  0
   27.1362   10.7171    0.0000 C   0  0  0  0  0  0  0  0  0  0  0  0
   27.1362    9.8921    0.0000 O   0  0  0  0  0  0  0  0  0  0  0  0
   27.8506   11.1296    0.0000 C   0  0  0  0  0  0  0  0  0  0  0  0
   28.5651   10.7171    0.0000 C   0  0  0  0  0  0  0  0  0  0  0  0
   29.2796   11.1296    0.0000 S   0  0  0  0  0  0  0  0  0  0  0  0
   29.9940   10.7171    0.0000 C   0  0  0  0  0  0  0  0  0  0  0  0
   30.7085   11.1296    0.0000 C   0  0  0  0  0  0  0  0  0  0  0  0
   31.4230   10.7171    0.0000 C   0  0  0  0  0  0  0  0  0  0  0  0
   31.4230    9.8921    0.0000 O   0  0  0  0  0  0  0  0  0  0  0  0
   32.1375   11.1296    0.0000 O   0  0  0  0  0  0  0  0  0  0  0  0
   32.8519   10.7171    0.0000 C   0  0  0  0  0  0  0  0  0  0  0  0
   33.5664   11.1296    0.0000 C   0  0  0  0  0  0  0  0  0  0  0  0
   34.2809   10.7171    0.0000 C   0  0  0  0  0  0  0  0  0  0  0  0
   34.9953   11.1296    0.0000 C   0  0  0  0  0  0  0  0  0  0  0  0
   35.7098   10.7171    0.0000 C   0  0  0  0  0  0  0  0  0  0  0  0
   36.4243   11.1296    0.0000 C   0  0  0  0  0  0  0  0  0  0  0  0
   37.1388   10.7171    0.0000 C   0  0  0  0  0  0  0  0  0  0  0  0
   37.8532   11.1296    0.0000 C   0  0  0  0  0  0  0  0  0  0  0  0
   38.5677   10.7171    0.0000 C   0  0  0  0  0  0  0  0  0  0  0  0
   39.2822   11.1296    0.0000 C   0  0  0  0  0  0  0  0  0  0  0  0
   39.9966   10.7171    0.0000 C   0  0  0  0  0  0  0  0  0  0  0  0
   40.7111   11.1296    0.0000 C   0  0  0  0  0  0  0  0  0  0  0  0
  1  2  1  0  0  0  0
  2  3  1  0  0  0  0
  3  4  1  0  0  0  0
  4  5  1  0  0  0  0
  5  6  1  0  0  0  0
  6  7  1  0  0  0  0
  7  8  1  0  0  0  0
  8  9  1  0  0  0  0
  9 10  1  0  0  0  0
 10 11  1  0  0  0  0
 11 12  1  0  0  0  0
 12 13  1  0  0  0  0
 13 14  1  0  0  0  0
 14 15  2  0  0  0  0
 14 16  1  0  0  0  0
 16 17  1  0  0  0  0
 17 18  1  0  0  0  0
 18 19  1  0  0  0  0
 19 20  1  0  0  0  0
 20 21  1  0  0  0  0
 21 22  2  0  0  0  0
 21 23  1  0  0  0  0
 23 24  1  0  0  0  0
 24 25  1  0  0  0  0
 25 26  1  0  0  0  0
 26 27  1  0  0  0  0
 27 28  1  0  0  0  0
 28 29  1  0  0  0  0
 29 30  1  0  0  0  0
 30 31  1  0  0  0  0
 31 32  1  0  0  0  0
 32 33  1  0  0  0  0
 33 34  1  0  0  0  0
 34 35  1  0  0  0  0
M  END
> <RowID>
1484

> <Original_SMILES>
CCCCCCCCCCCCOC(=O)CCSCCC(=O)OCCCCCCCCCCCC

> <Canonical_QSARr>
CCCCCCCCCCCCOC(=O)CCSCCC(=O)OCCCCCCCCCCCC

> <InChI_Code_QSARr>
InChI=1S/C30H58O4S/c1-3-5-7-9-11-13-15-17-19-21-25-33-29(31)23-27-35-28-24-30(32)34-26-22-20-18-16-14-12-10-8-6-4-2/h3-28H2,1-2H3

> <InChI Key_QSARr>
GHKOFFNLGXMVNJ-UHFFFAOYSA-N

> <Salt_Solvent>


> <Salt_Solvent_ID>
0

> <Number of connected components>
1

$$$$
Molecule_1485
  Mrv2316 01072400032D          

 15 15  0  0  0  0            999 V2000
    0.7145   -2.1175    0.0000 N   0  0  0  0  0  0  0  0  0  0  0  0
    0.7145   -1.2925    0.0000 C   0  0  0  0  0  0  0  0  0  0  0  0
    0.7145   -0.4675    0.0000 C   0  0  0  0  0  0  0  0  0  0  0  0
    1.4290   -0.0550    0.0000 C   0  0  0  0  0  0  0  0  0  0  0  0
    1.4290    0.7700    0.0000 C   0  0  0  0  0  0  0  0  0  0  0  0
    0.7145    1.1825    0.0000 C   0  0  0  0  0  0  0  0  0  0  0  0
    0.7145    2.0075    0.0000 C   0  0  0  0  0  0  0  0  0  0  0  0
    0.7145    2.8325    0.0000 F   0  0  0  0  0  0  0  0  0  0  0  0
    1.5395    2.0075    0.0000 F   0  0  0  0  0  0  0  0  0  0  0  0
   -0.1105    2.0075    0.0000 F   0  0  0  0  0  0  0  0  0  0  0  0
    0.0000    0.7700    0.0000 C   0  0  0  0  0  0  0  0  0  0  0  0
    0.0000   -0.0550    0.0000 C   0  0  0  0  0  0  0  0  0  0  0  0
   -0.7145   -0.4675    0.0000 N   0  3  0  0  0  0  0  0  0  0  0  0
   -0.7145   -1.2925    0.0000 O   0  5  0  0  0  0  0  0  0  0  0  0
   -1.4289   -0.0550    0.0000 O   0  0  0  0  0  0  0  0  0  0  0  0
  1  2  3  0  0  0  0
  2  3  1  0  0  0  0
  4  3  1  0  0  0  0
  5  4  2  0  0  0  0
  6  5  1  0  0  0  0
  6  7  1  0  0  0  0
  7  8  1  0  0  0  0
  7  9  1  0  0  0  0
  7 10  1  0  0  0  0
 11  6  2  0  0  0  0
 12 11  1  0  0  0  0
  3 12  2  0  0  0  0
 12 13  1  0  0  0  0
 13 14  1  0  0  0  0
 13 15  2  0  0  0  0
M  CHG  2  13   1  14  -1
M  END
> <RowID>
1485

> <Original_SMILES>
N#CC1C=CC(=CC=1[N+]([O-])=O)C(F)(F)F

> <Canonical_QSARr>
N#CC1C=CC(=CC=1[N+]([O-])=O)C(F)(F)F

> <InChI_Code_QSARr>
InChI=1S/C8H3F3N2O2/c9-8(10,11)6-2-1-5(4-12)7(3-6)13(14)15/h1-3H

> <InChI Key_QSARr>
BQCWLXXZTCLGSZ-UHFFFAOYSA-N

> <Salt_Solvent>


> <Salt_Solvent_ID>
0

> <Number of connected components>
1

$$$$
Molecule_1487
  Mrv2316 01072400032D          

 17 18  0  0  0  0            999 V2000
    2.8159   -1.5772    0.0000 N   0  0  0  0  0  0  0  0  0  0  0  0
    2.1014   -1.1647    0.0000 C   0  0  0  0  0  0  0  0  0  0  0  0
    2.1014   -0.3397    0.0000 N   0  0  0  0  0  0  0  0  0  0  0  0
    1.3869    0.0728    0.0000 C   0  0  0  0  0  0  0  0  0  0  0  0
    1.3869    0.8978    0.0000 N   0  0  0  0  0  0  0  0  0  0  0  0
    0.6724   -0.3397    0.0000 N   0  0  0  0  0  0  0  0  0  0  0  0
    0.6724   -1.1647    0.0000 C   0  0  0  0  0  0  0  0  0  0  0  0
   -0.0420   -1.5772    0.0000 N   0  0  0  0  0  0  0  0  0  0  0  0
   -0.0420   -2.4022    0.0000 C   0  0  0  0  0  0  0  0  0  0  0  0
   -0.7565   -2.8147    0.0000 N   0  0  0  0  0  0  0  0  0  0  0  0
   -0.7565   -3.6397    0.0000 C   0  0  0  0  0  0  0  0  0  0  0  0
   -1.4710   -4.0522    0.0000 N   0  0  0  0  0  0  0  0  0  0  0  0
   -0.0420   -4.0522    0.0000 N   0  0  0  0  0  0  0  0  0  0  0  0
    0.6724   -3.6397    0.0000 C   0  0  0  0  0  0  0  0  0  0  0  0
    1.3869   -4.0522    0.0000 N   0  0  0  0  0  0  0  0  0  0  0  0
    0.6724   -2.8147    0.0000 N   0  0  0  0  0  0  0  0  0  0  0  0
    1.3869   -1.5772    0.0000 N   0  0  0  0  0  0  0  0  0  0  0  0
  1  2  2  0  0  0  0
  3  2  1  0  0  0  0
  4  3  1  0  0  0  0
  4  5  2  0  0  0  0
  6  4  1  0  0  0  0
  7  6  2  0  0  0  0
  7  8  1  0  0  0  0
  8  9  1  0  0  0  0
 10  9  1  0  0  0  0
 11 10  1  0  0  0  0
 11 12  2  0  0  0  0
 13 11  1  0  0  0  0
 14 13  1  0  0  0  0
 14 15  2  0  0  0  0
 16 14  1  0  0  0  0
  9 16  2  0  0  0  0
 17  7  1  0  0  0  0
  2 17  1  0  0  0  0
M  END
> <RowID>
1487

> <Original_SMILES>
N=C1NC(=N)N=C(N1)NC1NC(=N)NC(=N)N=1

> <Canonical_QSARr>
N=C1NC(=N)N=C(N1)NC1NC(=N)NC(=N)N=1

> <InChI_Code_QSARr>
InChI=1S/C6H9N11/c7-1-11-2(8)14-5(13-1)17-6-15-3(9)12-4(10)16-6/h(H9,7,8,9,10,11,12,13,14,15,16,17)

> <InChI Key_QSARr>
YZEZMSPGIPTEBA-UHFFFAOYSA-N

> <Salt_Solvent>


> <Salt_Solvent_ID>
0

> <Number of connected components>
1

$$$$
Molecule_1488
  Mrv2316 01072400032D          

 11 11  0  0  0  0            999 V2000
    1.6806    1.1308    0.0000 C   0  0  0  0  0  0  0  0  0  0  0  0
    0.8959    0.8758    0.0000 C   0  0  0  0  0  0  0  0  0  0  0  0
    0.2285    1.3608    0.0000 C   0  0  0  0  0  0  0  0  0  0  0  0
    0.2285    2.1858    0.0000 C   0  0  0  0  0  0  0  0  0  0  0  0
    0.2285    3.0108    0.0000 N   0  0  0  0  0  0  0  0  0  0  0  0
   -0.4389    0.8758    0.0000 S   0  0  0  0  0  0  0  0  0  0  0  0
   -0.1840    0.0912    0.0000 C   0  0  0  0  0  0  0  0  0  0  0  0
   -0.6689   -0.5762    0.0000 N   0  0  0  0  0  0  0  0  0  0  0  0
    0.6410    0.0912    0.0000 C   0  0  0  0  0  0  0  0  0  0  0  0
    1.1259   -0.5762    0.0000 C   0  0  0  0  0  0  0  0  0  0  0  0
    1.6109   -1.2437    0.0000 N   0  0  0  0  0  0  0  0  0  0  0  0
  1  2  1  0  0  0  0
  3  2  2  0  0  0  0
  3  4  1  0  0  0  0
  4  5  3  0  0  0  0
  6  3  1  0  0  0  0
  7  6  1  0  0  0  0
  7  8  1  0  0  0  0
  9  7  2  0  0  0  0
  2  9  1  0  0  0  0
  9 10  1  0  0  0  0
 10 11  3  0  0  0  0
M  END
> <RowID>
1488

> <Original_SMILES>
CC1=C(C#N)SC(N)=C1C#N

> <Canonical_QSARr>
CC1=C(C#N)SC(N)=C1C#N

> <InChI_Code_QSARr>
InChI=1S/C7H5N3S/c1-4-5(2-8)7(10)11-6(4)3-9/h10H2,1H3

> <InChI Key_QSARr>
GCSCENSWKWQJQG-UHFFFAOYSA-N

> <Salt_Solvent>


> <Salt_Solvent_ID>
0

> <Number of connected components>
1

$$$$
Molecule_1489
  Mrv2316 01072400032D          

 13 12  0  0  0  0            999 V2000
   -0.7145   -3.4914    0.0000 O   0  0  0  0  0  0  0  0  0  0  0  0
   -0.0000   -3.9039    0.0000 C   0  0  0  0  0  0  0  0  0  0  0  0
   -0.0000   -4.7289    0.0000 O   0  0  0  0  0  0  0  0  0  0  0  0
    0.7145   -3.4914    0.0000 C   0  0  0  0  0  0  0  0  0  0  0  0
    0.7145   -2.6664    0.0000 N   0  0  0  0  0  0  0  0  0  0  0  0
   -0.0000   -2.2539    0.0000 C   0  0  0  0  0  0  0  0  0  0  0  0
   -0.0000   -1.4289    0.0000 C   0  0  0  0  0  0  0  0  0  0  0  0
    0.7145   -1.0164    0.0000 O   0  0  0  0  0  0  0  0  0  0  0  0
   -0.7145   -1.0164    0.0000 O   0  0  0  0  0  0  0  0  0  0  0  0
    1.4289   -2.2539    0.0000 C   0  0  0  0  0  0  0  0  0  0  0  0
    1.4289   -1.4289    0.0000 C   0  0  0  0  0  0  0  0  0  0  0  0
    2.1434   -1.0164    0.0000 O   0  0  0  0  0  0  0  0  0  0  0  0
    1.0934   -0.6752    0.0000 O   0  0  0  0  0  0  0  0  0  0  0  0
  1  2  1  0  0  0  0
  2  3  2  0  0  0  0
  2  4  1  0  0  0  0
  4  5  1  0  0  0  0
  5  6  1  0  0  0  0
  6  7  1  0  0  0  0
  7  8  1  0  0  0  0
  7  9  2  0  0  0  0
  5 10  1  0  0  0  0
 10 11  1  0  0  0  0
 11 12  1  0  0  0  0
 11 13  2  0  0  0  0
M  END
> <RowID>
1489

> <Original_SMILES>
[Na+].[Na+].[Na+].[O-]C(=O)CN(CC([O-])=O)CC([O-])=O

> <Canonical_QSARr>
OC(=O)CN(CC(O)=O)CC(O)=O

> <InChI_Code_QSARr>
InChI=1S/C6H9NO6/c8-4(9)1-7(2-5(10)11)3-6(12)13/h1-3H2,(H,8,9)(H,10,11)(H,12,13)

> <InChI Key_QSARr>
MGFYIUFZLHCRTH-UHFFFAOYSA-N

> <Salt_Solvent>
[Na+]

> <Salt_Solvent_ID>
110

> <Number of connected components>
4

$$$$
Molecule_1491
  Mrv2316 01072400032D          

 56 61  0  0  0  0            999 V2000
   -1.4672   -0.5819    0.0000 O   0  0  0  0  0  0  0  0  0  0  0  0
   -0.7527   -0.1694    0.0000 S   0  0  0  0  0  0  0  0  0  0  0  0
   -1.1652    0.5451    0.0000 O   0  0  0  0  0  0  0  0  0  0  0  0
   -0.3402   -0.8839    0.0000 O   0  0  0  0  0  0  0  0  0  0  0  0
   -0.0383    0.2431    0.0000 C   0  0  0  0  0  0  0  0  0  0  0  0
    0.6762   -0.1694    0.0000 C   0  0  0  0  0  0  0  0  0  0  0  0
    1.3907    0.2431    0.0000 C   0  0  0  0  0  0  0  0  0  0  0  0
    1.3907    1.0681    0.0000 C   0  0  0  0  0  0  0  0  0  0  0  0
    2.1051    1.4806    0.0000 C   0  0  0  0  0  0  0  0  0  0  0  0
    2.8196    1.0681    0.0000 C   0  0  0  0  0  0  0  0  0  0  0  0
    2.8196    0.2431    0.0000 C   0  0  0  0  0  0  0  0  0  0  0  0
    2.1051   -0.1694    0.0000 C   0  0  0  0  0  0  0  0  0  0  0  0
    3.5341   -0.1694    0.0000 S   0  0  0  0  0  0  0  0  0  0  0  0
    4.2486   -0.5819    0.0000 O   0  0  0  0  0  0  0  0  0  0  0  0
    3.1216   -0.8839    0.0000 O   0  0  0  0  0  0  0  0  0  0  0  0
    3.9466    0.5451    0.0000 O   0  0  0  0  0  0  0  0  0  0  0  0
    3.5341    1.4806    0.0000 N   0  0  0  0  0  0  0  0  0  0  0  0
    4.2486    1.0681    0.0000 N   0  0  0  0  0  0  0  0  0  0  0  0
    4.9630    1.4806    0.0000 C   0  0  0  0  0  0  0  0  0  0  0  0
    5.6775    1.0681    0.0000 C   0  0  0  0  0  0  0  0  0  0  0  0
    6.3920    1.4806    0.0000 C   0  0  0  0  0  0  0  0  0  0  0  0
    6.3920    2.3056    0.0000 C   0  0  0  0  0  0  0  0  0  0  0  0
    5.6775    2.7181    0.0000 C   0  0  0  0  0  0  0  0  0  0  0  0
    4.9630    2.3056    0.0000 C   0  0  0  0  0  0  0  0  0  0  0  0
    2.1051    2.3056    0.0000 O   0  0  0  0  0  0  0  0  0  0  0  0
    0.6762    1.4806    0.0000 C   0  0  0  0  0  0  0  0  0  0  0  0
    0.6762    2.3056    0.0000 N   0  0  0  0  0  0  0  0  0  0  0  0
   -0.0383    1.0681    0.0000 C   0  0  0  0  0  0  0  0  0  0  0  0
   -0.7527    1.4806    0.0000 N   0  0  0  0  0  0  0  0  0  0  0  0
   -0.7527    2.3056    0.0000 N   0  0  0  0  0  0  0  0  0  0  0  0
   -1.4672    2.7181    0.0000 C   0  0  0  0  0  0  0  0  0  0  0  0
   -1.4672    3.5431    0.0000 C   0  0  0  0  0  0  0  0  0  0  0  0
   -2.1817    3.9556    0.0000 C   0  0  0  0  0  0  0  0  0  0  0  0
   -2.8962    3.5431    0.0000 C   0  0  0  0  0  0  0  0  0  0  0  0
   -3.6106    3.9556    0.0000 N   0  0  0  0  0  0  0  0  0  0  0  0
   -4.3251    3.5431    0.0000 S   0  0  0  0  0  0  0  0  0  0  0  0
   -5.0396    3.1306    0.0000 C   0  0  0  0  0  0  0  0  0  0  0  0
   -5.7540    3.5431    0.0000 C   0  0  0  0  0  0  0  0  0  0  0  0
   -6.4685    3.1306    0.0000 C   0  0  0  0  0  0  0  0  0  0  0  0
   -6.4685    2.3056    0.0000 C   0  0  0  0  0  0  0  0  0  0  0  0
   -7.1830    1.8931    0.0000 N   0  0  0  0  0  0  0  0  0  0  0  0
   -7.8975    2.3056    0.0000 N   0  0  0  0  0  0  0  0  0  0  0  0
   -8.6119    1.8931    0.0000 C   0  0  0  0  0  0  0  0  0  0  0  0
   -9.3264    2.3056    0.0000 C   0  0  0  0  0  0  0  0  0  0  0  0
   -9.3264    3.1306    0.0000 N   0  0  0  0  0  0  0  0  0  0  0  0
  -10.0409    1.8931    0.0000 C   0  0  0  0  0  0  0  0  0  0  0  0
  -10.0409    1.0681    0.0000 C   0  0  0  0  0  0  0  0  0  0  0  0
  -10.7553    0.6556    0.0000 N   0  0  0  0  0  0  0  0  0  0  0  0
   -9.3264    0.6556    0.0000 C   0  0  0  0  0  0  0  0  0  0  0  0
   -8.6119    1.0681    0.0000 C   0  0  0  0  0  0  0  0  0  0  0  0
   -5.7540    1.8931    0.0000 C   0  0  0  0  0  0  0  0  0  0  0  0
   -5.0396    2.3056    0.0000 C   0  0  0  0  0  0  0  0  0  0  0  0
   -4.7376    4.2576    0.0000 O   0  0  0  0  0  0  0  0  0  0  0  0
   -3.9126    2.8286    0.0000 O   0  0  0  0  0  0  0  0  0  0  0  0
   -2.8962    2.7181    0.0000 C   0  0  0  0  0  0  0  0  0  0  0  0
   -2.1817    2.3056    0.0000 C   0  0  0  0  0  0  0  0  0  0  0  0
  1  2  1  0  0  0  0
  2  3  2  0  0  0  0
  2  4  2  0  0  0  0
  2  5  1  0  0  0  0
  6  5  2  0  0  0  0
  7  6  1  0  0  0  0
  7  8  1  0  0  0  0
  8  9  2  0  0  0  0
  9 10  1  0  0  0  0
 10 11  2  0  0  0  0
 11 12  1  0  0  0  0
 12  7  2  0  0  0  0
 11 13  1  0  0  0  0
 13 14  1  0  0  0  0
 13 15  2  0  0  0  0
 13 16  2  0  0  0  0
 17 10  1  4  0  0  0
 17 18  2  0  0  0  0
 18 19  1  0  0  0  0
 20 19  2  0  0  0  0
 21 20  1  0  0  0  0
 22 21  2  0  0  0  0
 23 22  1  0  0  0  0
 24 23  2  0  0  0  0
 19 24  1  0  0  0  0
  9 25  1  0  0  0  0
 26  8  1  0  0  0  0
 26 27  1  0  0  0  0
 28 26  2  0  0  0  0
  5 28  1  0  0  0  0
 29 28  1  4  0  0  0
 29 30  2  0  0  0  0
 30 31  1  0  0  0  0
 32 31  2  0  0  0  0
 33 32  1  0  0  0  0
 34 33  2  0  0  0  0
 34 35  1  0  0  0  0
 35 36  1  0  0  0  0
 36 37  1  0  0  0  0
 38 37  2  0  0  0  0
 39 38  1  0  0  0  0
 40 39  2  0  0  0  0
 41 40  1  4  0  0  0
 41 42  2  0  0  0  0
 42 43  1  0  0  0  0
 44 43  2  0  0  0  0
 44 45  1  0  0  0  0
 46 44  1  0  0  0  0
 47 46  2  0  0  0  0
 47 48  1  0  0  0  0
 49 47  1  0  0  0  0
 50 49  2  0  0  0  0
 43 50  1  0  0  0  0
 51 40  1  0  0  0  0
 52 51  2  0  0  0  0
 37 52  1  0  0  0  0
 36 53  2  0  0  0  0
 36 54  2  0  0  0  0
 55 34  1  0  0  0  0
 56 55  2  0  0  0  0
 31 56  1  0  0  0  0
M  END
> <RowID>
1491

> <Original_SMILES>
[Na+].[Na+].NC1C(N=NC2C=CC(=CC=2)NS(=O)(=O)C2C=CC(=CC=2)N=NC2=CC=C(N)C=C2N)=C(C=C2C=C(C(N=NC3C=CC=CC=3)=C(O)C=12)S([O-])(=O)=O)S([O-])(=O)=O

> <Canonical_QSARr>
NC1=CC(N)=C(C=C1)N=NC1C=CC(=CC=1)S(=O)(=O)NC1C=CC(=CC=1)N=NC1C(=CC2=CC(=C(N=NC3C=CC=CC=3)C(O)=C2C=1N)S(O)(=O)=O)S(O)(=O)=O

> <InChI_Code_QSARr>
InChI=1S/C34H28N10O9S3/c35-20-6-15-27(26(36)18-20)41-38-23-11-13-25(14-12-23)54(46,47)44-24-9-7-22(8-10-24)40-42-32-28(55(48,49)50)16-19-17-29(56(51,52)53)33(34(45)30(19)31(32)37)43-39-21-4-2-1-3-5-21/h1-18,44-45H,35-37H2,(H,48,49,50)(H,51,52,53)

> <InChI Key_QSARr>
ZCJMFVUTNJRMFR-UHFFFAOYSA-N

> <Salt_Solvent>
[Na+]

> <Salt_Solvent_ID>
110

> <Number of connected components>
3

$$$$
Molecule_1492
  Mrv2316 01072400032D          

  7  6  0  0  0  0            999 V2000
    2.4750   -1.4289    0.0000 C   0  0  0  0  0  0  0  0  0  0  0  0
    2.0625   -0.7145    0.0000 C   0  0  0  0  0  0  0  0  0  0  0  0
    2.4750    0.0000    0.0000 C   0  0  0  0  0  0  0  0  0  0  0  0
    1.2375   -0.7145    0.0000 C   0  0  0  0  0  0  0  0  0  0  0  0
    0.8250   -1.4289    0.0000 O   0  0  0  0  0  0  0  0  0  0  0  0
    0.8250    0.0000    0.0000 O   0  0  0  0  0  0  0  0  0  0  0  0
    0.0000    0.0000    0.0000 C   0  0  0  0  0  0  0  0  0  0  0  0
  1  2  1  0  0  0  0
  2  3  2  0  0  0  0
  2  4  1  0  0  0  0
  4  5  2  0  0  0  0
  4  6  1  0  0  0  0
  6  7  1  0  0  0  0
M  END
> <RowID>
1492

> <Original_SMILES>
CC(=C)C(=O)OC

> <Canonical_QSARr>
CC(=C)C(=O)OC

> <InChI_Code_QSARr>
InChI=1S/C5H8O2/c1-4(2)5(6)7-3/h1H2,2-3H3

> <InChI Key_QSARr>
VVQNEPGJFQJSBK-UHFFFAOYSA-N

> <Salt_Solvent>


> <Salt_Solvent_ID>
0

> <Number of connected components>
1

$$$$
Molecule_1494
  Mrv2316 01072400032D          

 20 19  0  0  0  0            999 V2000
    9.1855    6.1283    0.0000 C   0  0  0  0  0  0  0  0  0  0  0  0
    9.9000    5.7158    0.0000 C   0  0  0  0  0  0  0  0  0  0  0  0
   10.6145    6.1283    0.0000 C   0  0  0  0  0  0  0  0  0  0  0  0
   11.3289    5.7158    0.0000 C   0  0  0  0  0  0  0  0  0  0  0  0
   12.0434    6.1283    0.0000 C   0  0  0  0  0  0  0  0  0  0  0  0
   12.7579    5.7158    0.0000 C   0  0  0  0  0  0  0  0  0  0  0  0
   13.4723    6.1283    0.0000 C   0  0  0  0  0  0  0  0  0  0  0  0
   14.1868    5.7158    0.0000 C   0  0  0  0  0  0  0  0  0  0  0  0
   14.9013    6.1283    0.0000 C   0  0  0  0  0  0  0  0  0  0  0  0
   15.6158    5.7158    0.0000 C   0  0  0  0  0  0  0  0  0  0  0  0
   16.3302    6.1283    0.0000 C   0  0  0  0  0  0  0  0  0  0  0  0
   17.0447    5.7158    0.0000 C   0  0  0  0  0  0  0  0  0  0  0  0
   17.7592    6.1283    0.0000 C   0  0  0  0  0  0  0  0  0  0  0  0
   18.4736    5.7158    0.0000 C   0  0  0  0  0  0  0  0  0  0  0  0
   19.1881    6.1283    0.0000 C   0  0  0  0  0  0  0  0  0  0  0  0
   19.9026    5.7158    0.0000 C   0  0  0  0  0  0  0  0  0  0  0  0
   20.6171    6.1283    0.0000 C   0  0  0  0  0  0  0  0  0  0  0  0
   21.3315    5.7158    0.0000 C   0  0  0  0  0  0  0  0  0  0  0  0
   22.0460    6.1283    0.0000 O   0  0  0  0  0  0  0  0  0  0  0  0
   21.3315    4.8908    0.0000 Cl  0  0  0  0  0  0  0  0  0  0  0  0
  1  2  1  0  0  0  0
  2  3  1  0  0  0  0
  3  4  1  0  0  0  0
  4  5  1  0  0  0  0
  5  6  1  0  0  0  0
  6  7  1  0  0  0  0
  7  8  1  0  0  0  0
  8  9  1  0  0  0  0
  9 10  1  0  0  0  0
 10 11  1  0  0  0  0
 11 12  1  0  0  0  0
 12 13  1  0  0  0  0
 13 14  1  0  0  0  0
 14 15  1  0  0  0  0
 15 16  1  0  0  0  0
 16 17  1  0  0  0  0
 17 18  1  0  0  0  0
 18 19  2  0  0  0  0
 18 20  1  0  0  0  0
M  END
> <RowID>
1494

> <Original_SMILES>
CCCCCCCCCCCCCCCCCC(=O)Cl

> <Canonical_QSARr>
CCCCCCCCCCCCCCCCCC(=O)Cl

> <InChI_Code_QSARr>
InChI=1S/C18H35ClO/c1-2-3-4-5-6-7-8-9-10-11-12-13-14-15-16-17-18(19)20/h2-17H2,1H3

> <InChI Key_QSARr>
WTBAHSZERDXKKZ-UHFFFAOYSA-N

> <Salt_Solvent>


> <Salt_Solvent_ID>
0

> <Number of connected components>
1

$$$$
Molecule_1495
  Mrv2316 01072400032D          

 15 15  0  0  0  0            999 V2000
    7.0125    3.8071    0.0000 C   0  0  0  0  0  0  0  0  0  0  0  0
    7.7269    3.3946    0.0000 C   0  0  0  0  0  0  0  0  0  0  0  0
    8.4414    3.8071    0.0000 C   0  0  0  0  0  0  0  0  0  0  0  0
    9.1559    3.3946    0.0000 C   0  0  0  0  0  0  0  0  0  0  0  0
    9.8704    3.8071    0.0000 C   0  0  0  0  0  0  0  0  0  0  0  0
   10.5848    3.3946    0.0000 C   0  0  0  0  0  0  0  0  0  0  0  0
   11.2993    3.8071    0.0000 C   0  0  0  0  0  0  0  0  0  0  0  0
   12.0138    3.3946    0.0000 C   0  0  0  0  0  0  0  0  0  0  0  0
   12.7282    3.8071    0.0000 C   0  0  0  0  0  0  0  0  0  0  0  0
   13.4427    3.3946    0.0000 C   0  0  0  0  0  0  0  0  0  0  0  0
   14.1572    3.8071    0.0000 C   0  0  0  0  0  0  0  0  0  0  0  0
   14.8717    3.3946    0.0000 C   0  0  0  0  0  0  0  0  0  0  0  0
   15.5861    3.8071    0.0000 C   0  0  0  0  0  0  0  0  0  0  0  0
   16.4111    3.8071    0.0000 C   0  0  0  0  0  0  0  0  0  0  0  0
   15.9986    4.5216    0.0000 O   0  0  0  0  0  0  0  0  0  0  0  0
  1  2  1  0  0  0  0
  2  3  1  0  0  0  0
  3  4  1  0  0  0  0
  4  5  1  0  0  0  0
  5  6  1  0  0  0  0
  6  7  1  0  0  0  0
  7  8  1  0  0  0  0
  8  9  1  0  0  0  0
  9 10  1  0  0  0  0
 10 11  1  0  0  0  0
 11 12  1  0  0  0  0
 12 13  1  0  0  0  0
 14 13  1  0  0  0  0
 15 14  1  0  0  0  0
 13 15  1  0  0  0  0
M  END
> <RowID>
1495

> <Original_SMILES>
CCCCCCCCCCCCC1CO1

> <Canonical_QSARr>
CCCCCCCCCCCCC1CO1

> <InChI_Code_QSARr>
InChI=1S/C14H28O/c1-2-3-4-5-6-7-8-9-10-11-12-14-13-15-14/h14H,2-13H2,1H3

> <InChI Key_QSARr>
IOHJQSFEAYDZGF-UHFFFAOYSA-N

> <Salt_Solvent>


> <Salt_Solvent_ID>
0

> <Number of connected components>
1

$$$$
Molecule_1496
  Mrv2316 01072400032D          

  8  8  0  0  0  0            999 V2000
    1.2503    2.4750    0.0000 O   0  0  0  0  0  0  0  0  0  0  0  0
    0.5359    2.0625    0.0000 C   0  0  0  0  0  0  0  0  0  0  0  0
    0.5359    1.2375    0.0000 N   0  0  0  0  0  0  0  0  0  0  0  0
   -0.1786    0.8250    0.0000 C   0  0  0  0  0  0  0  0  0  0  0  0
   -0.1786   -0.0000    0.0000 C   0  0  0  0  0  0  0  0  0  0  0  0
    0.5359   -0.4125    0.0000 O   0  0  0  0  0  0  0  0  0  0  0  0
    1.2503    0.0000    0.0000 C   0  0  0  0  0  0  0  0  0  0  0  0
    1.2503    0.8250    0.0000 C   0  0  0  0  0  0  0  0  0  0  0  0
  1  2  2  0  0  0  0
  2  3  1  0  0  0  0
  4  3  1  0  0  0  0
  5  4  1  0  0  0  0
  6  5  1  0  0  0  0
  7  6  1  0  0  0  0
  8  7  1  0  0  0  0
  3  8  1  0  0  0  0
M  END
> <RowID>
1496

> <Original_SMILES>
O=CN1CCOCC1

> <Canonical_QSARr>
O=CN1CCOCC1

> <InChI_Code_QSARr>
InChI=1S/C5H9NO2/c7-5-6-1-3-8-4-2-6/h5H,1-4H2

> <InChI Key_QSARr>
LCEDQNDDFOCWGG-UHFFFAOYSA-N

> <Salt_Solvent>


> <Salt_Solvent_ID>
0

> <Number of connected components>
1

$$$$
Molecule_1497
  Mrv2316 01072400032D          

 14 14  0  0  0  0            999 V2000
   -0.3062   -2.8875    0.0000 C   0  0  0  0  0  0  0  0  0  0  0  0
    0.4083   -2.4750    0.0000 C   0  0  0  0  0  0  0  0  0  0  0  0
    0.4083   -1.6500    0.0000 O   0  0  0  0  0  0  0  0  0  0  0  0
    1.1227   -1.2375    0.0000 C   0  0  0  0  0  0  0  0  0  0  0  0
    1.1227   -0.4125    0.0000 C   0  0  0  0  0  0  0  0  0  0  0  0
    1.8372    0.0000    0.0000 C   0  0  0  0  0  0  0  0  0  0  0  0
    1.8372    0.8250    0.0000 C   0  0  0  0  0  0  0  0  0  0  0  0
    1.1227    1.2375    0.0000 C   0  0  0  0  0  0  0  0  0  0  0  0
    1.1227    2.0625    0.0000 C   0  0  0  0  0  0  0  0  0  0  0  0
    0.4083    2.4750    0.0000 O   0  0  0  0  0  0  0  0  0  0  0  0
    0.4083    3.3000    0.0000 C   0  0  0  0  0  0  0  0  0  0  0  0
   -0.3062    3.7125    0.0000 C   0  0  0  0  0  0  0  0  0  0  0  0
    0.4083    0.8250    0.0000 C   0  0  0  0  0  0  0  0  0  0  0  0
    0.4083    0.0000    0.0000 C   0  0  0  0  0  0  0  0  0  0  0  0
  1  2  1  0  0  0  0
  2  3  1  0  0  0  0
  3  4  1  0  0  0  0
  4  5  1  0  0  0  0
  6  5  1  0  0  0  0
  7  6  1  0  0  0  0
  8  7  1  0  0  0  0
  8  9  1  0  0  0  0
  9 10  1  0  0  0  0
 10 11  1  0  0  0  0
 11 12  1  0  0  0  0
 13  8  1  0  0  0  0
 14 13  1  0  0  0  0
  5 14  1  0  0  0  0
M  END
> <RowID>
1497

> <Original_SMILES>
CCOCC1CCC(COCC)CC1

> <Canonical_QSARr>
CCOCC1CCC(COCC)CC1

> <InChI_Code_QSARr>
InChI=1S/C12H24O2/c1-3-13-9-11-5-7-12(8-6-11)10-14-4-2/h11-12H,3-10H2,1-2H3

> <InChI Key_QSARr>
DEROEFJZVPSIAO-UHFFFAOYSA-N

> <Salt_Solvent>


> <Salt_Solvent_ID>
0

> <Number of connected components>
1

$$$$
Molecule_1498
  Mrv2316 01072400032D          

 40 39  0  0  0  0            999 V2000
    2.7561   18.0915    0.0000 C   0  0  0  0  0  0  0  0  0  0  0  0
    2.7561   17.2665    0.0000 C   0  0  0  0  0  0  0  0  0  0  0  0
    3.4706   16.8540    0.0000 C   0  0  0  0  0  0  0  0  0  0  0  0
    3.4706   16.0290    0.0000 C   0  0  0  0  0  0  0  0  0  0  0  0
    4.1850   15.6165    0.0000 C   0  0  0  0  0  0  0  0  0  0  0  0
    4.1850   14.7915    0.0000 C   0  0  0  0  0  0  0  0  0  0  0  0
    4.8995   14.3790    0.0000 C   0  0  0  0  0  0  0  0  0  0  0  0
    4.8995   13.5540    0.0000 C   0  0  0  0  0  0  0  0  0  0  0  0
    5.6140   13.1415    0.0000 C   0  0  0  0  0  0  0  0  0  0  0  0
    5.6140   12.3165    0.0000 C   0  0  0  0  0  0  0  0  0  0  0  0
    6.3284   11.9040    0.0000 C   0  0  0  0  0  0  0  0  0  0  0  0
    6.3284   11.0790    0.0000 C   0  0  0  0  0  0  0  0  0  0  0  0
    7.0429   10.6665    0.0000 C   0  0  0  0  0  0  0  0  0  0  0  0
    7.0429    9.8415    0.0000 C   0  0  0  0  0  0  0  0  0  0  0  0
    7.7574    9.4290    0.0000 C   0  0  0  0  0  0  0  0  0  0  0  0
    7.7574    8.6040    0.0000 C   0  0  0  0  0  0  0  0  0  0  0  0
    8.4718    8.1915    0.0000 O   0  0  0  0  0  0  0  0  0  0  0  0
    8.4718    7.3665    0.0000 C   0  0  0  0  0  0  0  0  0  0  0  0
    7.7574    6.9540    0.0000 O   0  0  0  0  0  0  0  0  0  0  0  0
    9.1863    6.9540    0.0000 C   0  0  0  0  0  0  0  0  0  0  0  0
    9.1863    6.1290    0.0000 C   0  0  0  0  0  0  0  0  0  0  0  0
    9.9008    5.7165    0.0000 C   0  0  0  0  0  0  0  0  0  0  0  0
    9.9008    4.8915    0.0000 O   0  0  0  0  0  0  0  0  0  0  0  0
   10.6153    6.1290    0.0000 O   0  0  0  0  0  0  0  0  0  0  0  0
   11.3297    5.7165    0.0000 C   0  0  0  0  0  0  0  0  0  0  0  0
   12.0442    6.1290    0.0000 C   0  0  0  0  0  0  0  0  0  0  0  0
   12.7587    5.7165    0.0000 C   0  0  0  0  0  0  0  0  0  0  0  0
   13.4731    6.1290    0.0000 C   0  0  0  0  0  0  0  0  0  0  0  0
   14.1876    5.7165    0.0000 C   0  0  0  0  0  0  0  0  0  0  0  0
   14.9021    6.1290    0.0000 C   0  0  0  0  0  0  0  0  0  0  0  0
   15.6166    5.7165    0.0000 C   0  0  0  0  0  0  0  0  0  0  0  0
   16.3310    6.1290    0.0000 C   0  0  0  0  0  0  0  0  0  0  0  0
   17.0455    5.7165    0.0000 C   0  0  0  0  0  0  0  0  0  0  0  0
   17.7600    6.1290    0.0000 C   0  0  0  0  0  0  0  0  0  0  0  0
   18.4744    5.7165    0.0000 C   0  0  0  0  0  0  0  0  0  0  0  0
   19.1889    6.1290    0.0000 C   0  0  0  0  0  0  0  0  0  0  0  0
   19.9034    5.7165    0.0000 C   0  0  0  0  0  0  0  0  0  0  0  0
   20.6179    6.1290    0.0000 C   0  0  0  0  0  0  0  0  0  0  0  0
   21.3323    5.7165    0.0000 C   0  0  0  0  0  0  0  0  0  0  0  0
   22.0468    6.1290    0.0000 C   0  0  0  0  0  0  0  0  0  0  0  0
  1  2  1  0  0  0  0
  2  3  1  0  0  0  0
  3  4  1  0  0  0  0
  4  5  1  0  0  0  0
  5  6  1  0  0  0  0
  6  7  1  0  0  0  0
  7  8  1  0  0  0  0
  8  9  1  0  0  0  0
  9 10  1  0  0  0  0
 10 11  1  0  0  0  0
 11 12  1  0  0  0  0
 12 13  1  0  0  0  0
 13 14  1  0  0  0  0
 14 15  1  0  0  0  0
 15 16  1  0  0  0  0
 16 17  1  0  0  0  0
 17 18  1  0  0  0  0
 18 19  2  0  0  0  0
 20 18  1  4  0  0  0
 20 21  2  0  0  0  0
 21 22  1  0  0  0  0
 22 23  2  0  0  0  0
 22 24  1  0  0  0  0
 24 25  1  0  0  0  0
 25 26  1  0  0  0  0
 26 27  1  0  0  0  0
 27 28  1  0  0  0  0
 28 29  1  0  0  0  0
 29 30  1  0  0  0  0
 30 31  1  0  0  0  0
 31 32  1  0  0  0  0
 32 33  1  0  0  0  0
 33 34  1  0  0  0  0
 34 35  1  0  0  0  0
 35 36  1  0  0  0  0
 36 37  1  0  0  0  0
 37 38  1  0  0  0  0
 38 39  1  0  0  0  0
 39 40  1  0  0  0  0
M  END
> <RowID>
1498

> <Original_SMILES>
CCCCCCCCCCCCCCCCOC(=O)C=CC(=O)OCCCCCCCCCCCCCCCC

> <Canonical_QSARr>
CCCCCCCCCCCCCCCCOC(=O)C=CC(=O)OCCCCCCCCCCCCCCCC

> <InChI_Code_QSARr>
InChI=1S/C36H68O4/c1-3-5-7-9-11-13-15-17-19-21-23-25-27-29-33-39-35(37)31-32-36(38)40-34-30-28-26-24-22-20-18-16-14-12-10-8-6-4-2/h31-32H,3-30,33-34H2,1-2H3

> <InChI Key_QSARr>
NXQIBFMKDQPBGW-UHFFFAOYSA-N

> <Salt_Solvent>


> <Salt_Solvent_ID>
0

> <Number of connected components>
1

$$$$
Molecule_1499
  Mrv2316 01072400032D          

 10 11  0  0  0  0            999 V2000
   -1.4534   -0.6979    0.0000 S   0  0  0  0  0  0  0  0  0  0  0  0
   -0.6284   -0.6979    0.0000 C   0  0  0  0  0  0  0  0  0  0  0  0
   -0.1435   -1.3653    0.0000 S   0  0  0  0  0  0  0  0  0  0  0  0
    0.6411   -1.1104    0.0000 C   0  0  0  0  0  0  0  0  0  0  0  0
    0.6411   -0.2854    0.0000 C   0  0  0  0  0  0  0  0  0  0  0  0
    1.3556    0.1271    0.0000 C   0  0  0  0  0  0  0  0  0  0  0  0
    2.0701   -0.2854    0.0000 C   0  0  0  0  0  0  0  0  0  0  0  0
    2.0701   -1.1104    0.0000 C   0  0  0  0  0  0  0  0  0  0  0  0
    1.3556   -1.5229    0.0000 C   0  0  0  0  0  0  0  0  0  0  0  0
   -0.1435   -0.0305    0.0000 N   0  0  0  0  0  0  0  0  0  0  0  0
  1  2  1  0  0  0  0
  3  2  1  0  0  0  0
  4  3  1  0  0  0  0
  4  5  2  0  0  0  0
  5  6  1  0  0  0  0
  6  7  2  0  0  0  0
  7  8  1  0  0  0  0
  8  9  2  0  0  0  0
  9  4  1  0  0  0  0
 10  5  1  0  0  0  0
  2 10  2  0  0  0  0
M  END
> <RowID>
1499

> <Original_SMILES>
[Zn+2].[S-]C1=NC2C=CC=CC=2S1.[S-]C1=NC2C=CC=CC=2S1

> <Canonical_QSARr>
SC1=NC2C=CC=CC=2S1

> <InChI_Code_QSARr>
InChI=1S/C7H5NS2/c9-7-8-5-3-1-2-4-6(5)10-7/h1-4H,(H,8,9)

> <InChI Key_QSARr>
YXIWHUQXZSMYRE-UHFFFAOYSA-N

> <Salt_Solvent>
[Zn+2]

> <Salt_Solvent_ID>
300

> <Number of connected components>
3

$$$$
Molecule_1500
  Mrv2316 01072400032D          

 27 29  0  0  0  0            999 V2000
    1.7729    4.5375    0.0000 O   0  5  0  0  0  0  0  0  0  0  0  0
    1.7729    3.7125    0.0000 N   0  3  0  0  0  0  0  0  0  0  0  0
    2.4874    3.3000    0.0000 O   0  0  0  0  0  0  0  0  0  0  0  0
    1.0585    3.3000    0.0000 C   0  0  0  0  0  0  0  0  0  0  0  0
    0.3440    3.7125    0.0000 C   0  0  0  0  0  0  0  0  0  0  0  0
    0.3440    4.5375    0.0000 N   0  0  0  0  0  0  0  0  0  0  0  0
   -0.3705    3.3000    0.0000 C   0  0  0  0  0  0  0  0  0  0  0  0
   -0.3705    2.4750    0.0000 C   0  0  0  0  0  0  0  0  0  0  0  0
    0.3440    2.0625    0.0000 C   0  0  0  0  0  0  0  0  0  0  0  0
    0.3440    1.2375    0.0000 N   0  0  0  0  0  0  0  0  0  0  0  0
    1.0585    0.8250    0.0000 N   0  0  0  0  0  0  0  0  0  0  0  0
    1.0585    0.0000    0.0000 C   0  0  0  0  0  0  0  0  0  0  0  0
    1.7729   -0.4125    0.0000 C   0  0  0  0  0  0  0  0  0  0  0  0
    2.4874    0.0000    0.0000 C   0  0  0  0  0  0  0  0  0  0  0  0
    3.2019   -0.4125    0.0000 C   0  0  0  0  0  0  0  0  0  0  0  0
    3.9164   -0.0000    0.0000 N   0  3  0  0  0  0  0  0  0  0  0  0
    4.6308    0.4125    0.0000 C   0  0  0  0  0  0  0  0  0  0  0  0
    4.3289   -0.7145    0.0000 C   0  0  0  0  0  0  0  0  0  0  0  0
    3.5039    0.7145    0.0000 C   0  0  0  0  0  0  0  0  0  0  0  0
    3.2019   -1.2375    0.0000 C   0  0  0  0  0  0  0  0  0  0  0  0
    2.4874   -1.6500    0.0000 C   0  0  0  0  0  0  0  0  0  0  0  0
    1.7729   -1.2375    0.0000 C   0  0  0  0  0  0  0  0  0  0  0  0
    1.0585   -1.6500    0.0000 C   0  0  0  0  0  0  0  0  0  0  0  0
    0.3440   -1.2375    0.0000 C   0  0  0  0  0  0  0  0  0  0  0  0
    0.3440   -0.4125    0.0000 C   0  0  0  0  0  0  0  0  0  0  0  0
   -0.3705   -0.0000    0.0000 O   0  0  0  0  0  0  0  0  0  0  0  0
    1.0585    2.4750    0.0000 C   0  0  0  0  0  0  0  0  0  0  0  0
  1  2  1  0  0  0  0
  2  3  2  0  0  0  0
  2  4  1  0  0  0  0
  5  4  1  0  0  0  0
  5  6  1  0  0  0  0
  7  5  2  0  0  0  0
  8  7  1  0  0  0  0
  9  8  2  0  0  0  0
 10  9  1  4  0  0  0
 10 11  2  0  0  0  0
 11 12  1  0  0  0  0
 13 12  1  0  0  0  0
 13 14  1  0  0  0  0
 14 15  2  0  0  0  0
 15 16  1  0  0  0  0
 16 17  1  0  0  0  0
 16 18  1  0  0  0  0
 16 19  1  0  0  0  0
 15 20  1  0  0  0  0
 20 21  2  0  0  0  0
 21 22  1  0  0  0  0
 22 13  2  0  0  0  0
 23 22  1  0  0  0  0
 24 23  2  0  0  0  0
 25 24  1  0  0  0  0
 12 25  2  0  0  0  0
 25 26  1  0  0  0  0
 27  9  1  0  0  0  0
  4 27  2  0  0  0  0
M  CHG  3   1  -1   2   1  16   1
M  END
> <RowID>
1500

> <Original_SMILES>
[Cl-].C[N+](C)(C)C1=CC2C(N=NC3C=C(C(N)=CC=3)[N+]([O-])=O)=C(O)C=CC=2C=C1

> <Canonical_QSARr>
C[N+](C)(C)C1=CC2C(N=NC3C=C(C(N)=CC=3)[N+]([O-])=O)=C(O)C=CC=2C=C1

> <InChI_Code_QSARr>
InChI=1S/C19H19N5O3/c1-24(2,3)14-7-4-12-5-9-18(25)19(15(12)11-14)22-21-13-6-8-16(20)17(10-13)23(26)27/h4-11H,1-3H3,(H2-,20,21,22,25)/p+1

> <InChI Key_QSARr>
DBAWZPPRBUSGPX-UHFFFAOYSA-O

> <Salt_Solvent>
[Cl-]

> <Salt_Solvent_ID>
170

> <Number of connected components>
2

$$$$
Molecule_1501
  Mrv2316 01072400032D          

  6  5  0  0  0  0            999 V2000
    1.6500   -1.4289    0.0000 O   0  0  0  0  0  0  0  0  0  0  0  0
    1.2375   -0.7145    0.0000 S   0  0  0  0  0  0  0  0  0  0  0  0
    1.9520   -0.3020    0.0000 O   0  0  0  0  0  0  0  0  0  0  0  0
    0.5230   -1.1270    0.0000 O   0  0  0  0  0  0  0  0  0  0  0  0
    0.8250   -0.0000    0.0000 C   0  0  0  0  0  0  0  0  0  0  0  0
    0.0000   -0.0000    0.0000 C   0  0  0  0  0  0  0  0  0  0  0  0
  1  2  1  0  0  0  0
  2  3  2  0  0  0  0
  2  4  2  0  0  0  0
  2  5  1  0  0  0  0
  5  6  2  0  0  0  0
M  END
> <RowID>
1501

> <Original_SMILES>
[Na+].C=CS([O-])(=O)=O

> <Canonical_QSARr>
C=CS(O)(=O)=O

> <InChI_Code_QSARr>
InChI=1S/C2H4O3S/c1-2-6(3,4)5/h2H,1H2,(H,3,4,5)

> <InChI Key_QSARr>
NLVXSWCKKBEXTG-UHFFFAOYSA-N

> <Salt_Solvent>
[Na+]

> <Salt_Solvent_ID>
110

> <Number of connected components>
2

$$$$
Molecule_1503
  Mrv2316 01072400032D          

 13 13  0  0  0  0            999 V2000
   -0.3298   -2.6654    0.0000 C   0  0  0  0  0  0  0  0  0  0  0  0
    0.3847   -2.2529    0.0000 S   0  0  0  0  0  0  0  0  0  0  0  0
    0.3847   -1.4279    0.0000 C   0  0  0  0  0  0  0  0  0  0  0  0
    1.0992   -1.0154    0.0000 C   0  0  0  0  0  0  0  0  0  0  0  0
    1.0992   -0.1904    0.0000 C   0  0  0  0  0  0  0  0  0  0  0  0
    0.3847    0.2221    0.0000 C   0  0  0  0  0  0  0  0  0  0  0  0
    0.3847    1.0471    0.0000 C   0  0  0  0  0  0  0  0  0  0  0  0
   -0.3298    1.4596    0.0000 O   0  0  0  0  0  0  0  0  0  0  0  0
    1.0992    1.4596    0.0000 C   0  0  0  0  0  0  0  0  0  0  0  0
    1.0992    2.2846    0.0000 C   0  0  0  0  0  0  0  0  0  0  0  0
    1.8137    1.0471    0.0000 C   0  0  0  0  0  0  0  0  0  0  0  0
   -0.3298   -0.1904    0.0000 C   0  0  0  0  0  0  0  0  0  0  0  0
   -0.3298   -1.0154    0.0000 C   0  0  0  0  0  0  0  0  0  0  0  0
  1  2  1  0  0  0  0
  2  3  1  0  0  0  0
  4  3  1  0  0  0  0
  5  4  2  0  0  0  0
  6  5  1  0  0  0  0
  6  7  1  0  0  0  0
  7  8  2  0  0  0  0
  7  9  1  0  0  0  0
  9 10  1  0  0  0  0
  9 11  1  0  0  0  0
 12  6  2  0  0  0  0
 13 12  1  0  0  0  0
  3 13  2  0  0  0  0
M  END
> <RowID>
1503

> <Original_SMILES>
CSC1C=CC(=CC=1)C(=O)C(C)C

> <Canonical_QSARr>
CSC1C=CC(=CC=1)C(=O)C(C)C

> <InChI_Code_QSARr>
InChI=1S/C11H14OS/c1-8(2)11(12)9-4-6-10(13-3)7-5-9/h4-8H,1-3H3

> <InChI Key_QSARr>
VYUGBDJOQZSDQV-UHFFFAOYSA-N

> <Salt_Solvent>


> <Salt_Solvent_ID>
0

> <Number of connected components>
1

$$$$
Molecule_1504
  Mrv2316 01072400032D          

 19 18  0  0  0  0            999 V2000
    7.9480    5.4138    0.0000 C   0  0  0  0  0  0  0  0  0  0  0  0
    8.6625    5.0013    0.0000 C   0  0  0  0  0  0  0  0  0  0  0  0
    9.3770    5.4138    0.0000 C   0  0  0  0  0  0  0  0  0  0  0  0
   10.0915    5.0013    0.0000 C   0  0  0  0  0  0  0  0  0  0  0  0
   10.8059    5.4138    0.0000 O   0  0  0  0  0  0  0  0  0  0  0  0
   11.5204    5.0013    0.0000 C   0  0  0  0  0  0  0  0  0  0  0  0
   11.5204    4.1763    0.0000 O   0  0  0  0  0  0  0  0  0  0  0  0
   12.2349    5.4138    0.0000 C   0  0  0  0  0  0  0  0  0  0  0  0
   12.9493    5.0013    0.0000 S   0  0  0  0  0  0  0  0  0  0  0  0
   13.6638    5.4138    0.0000 C   0  0  0  0  0  0  0  0  0  0  0  0
   14.3783    5.0013    0.0000 S   0  0  0  0  0  0  0  0  0  0  0  0
   15.0927    5.4138    0.0000 C   0  0  0  0  0  0  0  0  0  0  0  0
   15.8072    5.0013    0.0000 C   0  0  0  0  0  0  0  0  0  0  0  0
   15.8072    4.1763    0.0000 O   0  0  0  0  0  0  0  0  0  0  0  0
   16.5217    5.4138    0.0000 O   0  0  0  0  0  0  0  0  0  0  0  0
   17.2362    5.0013    0.0000 C   0  0  0  0  0  0  0  0  0  0  0  0
   17.9506    5.4138    0.0000 C   0  0  0  0  0  0  0  0  0  0  0  0
   18.6651    5.0013    0.0000 C   0  0  0  0  0  0  0  0  0  0  0  0
   19.3796    5.4138    0.0000 C   0  0  0  0  0  0  0  0  0  0  0  0
  1  2  1  0  0  0  0
  2  3  1  0  0  0  0
  3  4  1  0  0  0  0
  4  5  1  0  0  0  0
  5  6  1  0  0  0  0
  6  7  2  0  0  0  0
  6  8  1  0  0  0  0
  8  9  1  0  0  0  0
  9 10  1  0  0  0  0
 10 11  1  0  0  0  0
 11 12  1  0  0  0  0
 12 13  1  0  0  0  0
 13 14  2  0  0  0  0
 13 15  1  0  0  0  0
 15 16  1  0  0  0  0
 16 17  1  0  0  0  0
 17 18  1  0  0  0  0
 18 19  1  0  0  0  0
M  END
> <RowID>
1504

> <Original_SMILES>
CCCCOC(=O)CSCSCC(=O)OCCCC

> <Canonical_QSARr>
CCCCOC(=O)CSCSCC(=O)OCCCC

> <InChI_Code_QSARr>
InChI=1S/C13H24O4S2/c1-3-5-7-16-12(14)9-18-11-19-10-13(15)17-8-6-4-2/h3-11H2,1-2H3

> <InChI Key_QSARr>
QCWRDNFBMVSDEY-UHFFFAOYSA-N

> <Salt_Solvent>


> <Salt_Solvent_ID>
0

> <Number of connected components>
1

$$$$
Molecule_1505
  Mrv2316 01072400032D          

  9  8  0  0  0  0            999 V2000
    1.0461    1.4289    0.0000 C   0  0  0  0  0  0  0  0  0  0  0  0
    1.7605    1.8414    0.0000 C   0  0  0  0  0  0  0  0  0  0  0  0
    2.4750    1.4289    0.0000 C   0  0  0  0  0  0  0  0  0  0  0  0
    3.1895    1.8414    0.0000 C   0  0  0  0  0  0  0  0  0  0  0  0
    3.9039    1.4289    0.0000 O   0  0  0  0  0  0  0  0  0  0  0  0
    4.6184    1.8414    0.0000 C   0  0  0  0  0  0  0  0  0  0  0  0
    5.3329    1.4289    0.0000 C   0  0  0  0  0  0  0  0  0  0  0  0
    6.0474    1.8414    0.0000 C   0  0  0  0  0  0  0  0  0  0  0  0
    5.3329    0.6039    0.0000 O   0  0  0  0  0  0  0  0  0  0  0  0
  1  2  1  0  0  0  0
  2  3  1  0  0  0  0
  3  4  1  0  0  0  0
  4  5  1  0  0  0  0
  5  6  1  0  0  0  0
  6  7  1  0  0  0  0
  7  8  1  0  0  0  0
  7  9  1  0  0  0  0
M  END
> <RowID>
1505

> <Original_SMILES>
CCCCOCC(C)O

> <Canonical_QSARr>
CCCCOCC(C)O

> <InChI_Code_QSARr>
InChI=1S/C7H16O2/c1-3-4-5-9-6-7(2)8/h7-8H,3-6H2,1-2H3

> <InChI Key_QSARr>
RWNUSVWFHDHRCJ-UHFFFAOYSA-N

> <Salt_Solvent>


> <Salt_Solvent_ID>
0

> <Number of connected components>
1

$$$$
Molecule_1506
  Mrv2316 01072400032D          

 10  9  0  0  0  0            999 V2000
    2.0625    0.7145    0.0000 C   0  0  0  0  0  0  0  0  0  0  0  0
    1.2375    0.7145    0.0000 C   0  0  0  0  0  0  0  0  0  0  0  0
    0.8250    0.0000    0.0000 C   0  0  0  0  0  0  0  0  0  0  0  0
    1.2375   -0.7145    0.0000 C   0  0  0  0  0  0  0  0  0  0  0  0
   -0.0000    0.0000    0.0000 C   0  0  0  0  0  0  0  0  0  0  0  0
   -0.4125   -0.7145    0.0000 C   0  0  0  0  0  0  0  0  0  0  0  0
    0.0000   -1.4289    0.0000 C   0  0  0  0  0  0  0  0  0  0  0  0
   -0.4125   -2.1434    0.0000 C   0  0  0  0  0  0  0  0  0  0  0  0
    0.0000   -2.8579    0.0000 C   0  0  0  0  0  0  0  0  0  0  0  0
   -1.2375   -2.1434    0.0000 O   0  0  0  0  0  0  0  0  0  0  0  0
  1  2  1  0  0  0  0
  2  3  1  0  0  0  0
  3  4  1  0  0  0  0
  3  5  2  0  0  0  0
  5  6  1  4  0  0  0
  6  7  1  0  0  0  0
  7  8  1  0  0  0  0
  8  9  1  0  0  0  0
  8 10  2  0  0  0  0
M  END
> <RowID>
1506

> <Original_SMILES>
CCC(C)=CCCC(C)=O

> <Canonical_QSARr>
CCC(C)=CCCC(C)=O

> <InChI_Code_QSARr>
InChI=1S/C9H16O/c1-4-8(2)6-5-7-9(3)10/h6H,4-5,7H2,1-3H3

> <InChI Key_QSARr>
SAXWRVSDVXCTEL-UHFFFAOYSA-N

> <Salt_Solvent>


> <Salt_Solvent_ID>
0

> <Number of connected components>
1

$$$$
Molecule_1507
  Mrv2316 01072400032D          

  6  5  0  0  0  0            999 V2000
   -0.1914    0.7145    0.0000 C   0  0  0  0  0  0  0  0  0  0  0  0
    0.5230    1.1270    0.0000 C   0  0  0  0  0  0  0  0  0  0  0  0
    1.2375    0.7145    0.0000 C   0  0  0  0  0  0  0  0  0  0  0  0
    1.9520    1.1270    0.0000 C   0  0  0  0  0  0  0  0  0  0  0  0
    2.6664    0.7145    0.0000 C   0  0  0  0  0  0  0  0  0  0  0  0
    3.3809    1.1270    0.0000 C   0  0  0  0  0  0  0  0  0  0  0  0
  1  2  1  0  0  0  0
  2  3  1  0  0  0  0
  3  4  1  0  0  0  0
  4  5  1  0  0  0  0
  5  6  1  0  0  0  0
M  END
> <RowID>
1507

> <Original_SMILES>
CCCCCC

> <Canonical_QSARr>
CCCCCC

> <InChI_Code_QSARr>
InChI=1S/C6H14/c1-3-5-6-4-2/h3-6H2,1-2H3

> <InChI Key_QSARr>
VLKZOEOYAKHREP-UHFFFAOYSA-N

> <Salt_Solvent>


> <Salt_Solvent_ID>
0

> <Number of connected components>
1

$$$$
Molecule_1508
  Mrv2316 01072400032D          

 11 11  0  0  0  0            999 V2000
   -0.3897    2.4750    0.0000 N   0  0  0  0  0  0  0  0  0  0  0  0
    0.3248    2.0625    0.0000 C   0  0  0  0  0  0  0  0  0  0  0  0
    1.0392    2.4750    0.0000 C   0  0  0  0  0  0  0  0  0  0  0  0
    1.0392    3.3000    0.0000 O   0  0  0  0  0  0  0  0  0  0  0  0
    1.7537    2.0625    0.0000 O   0  0  0  0  0  0  0  0  0  0  0  0
    0.3248    1.2375    0.0000 C   0  0  0  0  0  0  0  0  0  0  0  0
   -0.3897    0.8250    0.0000 C   0  0  0  0  0  0  0  0  0  0  0  0
   -0.3897   -0.0000    0.0000 C   0  0  0  0  0  0  0  0  0  0  0  0
    0.3248   -0.4125    0.0000 C   0  0  0  0  0  0  0  0  0  0  0  0
    1.0392    0.0000    0.0000 C   0  0  0  0  0  0  0  0  0  0  0  0
    1.0392    0.8250    0.0000 C   0  0  0  0  0  0  0  0  0  0  0  0
  1  2  1  0  0  0  0
  2  3  1  0  0  0  0
  3  4  1  0  0  0  0
  3  5  2  0  0  0  0
  2  6  1  0  0  0  0
  7  6  1  0  0  0  0
  8  7  2  0  0  0  0
  9  8  1  0  0  0  0
 10  9  2  0  0  0  0
 11 10  1  0  0  0  0
  6 11  2  0  0  0  0
M  END
> <RowID>
1508

> <Original_SMILES>
NC(C(O)=O)C1C=CC=CC=1

> <Canonical_QSARr>
NC(C(O)=O)C1C=CC=CC=1

> <InChI_Code_QSARr>
InChI=1S/C8H9NO2/c9-7(8(10)11)6-4-2-1-3-5-6/h1-5,7H,9H2,(H,10,11)

> <InChI Key_QSARr>
ZGUNAGUHMKGQNY-UHFFFAOYSA-N

> <Salt_Solvent>


> <Salt_Solvent_ID>
0

> <Number of connected components>
1

$$$$
Molecule_1509
  Mrv2316 01072400032D          

 25 27  0  0  0  0            999 V2000
    1.0288   -3.3000    0.0000 O   0  0  0  0  0  0  0  0  0  0  0  0
    0.3144   -3.7125    0.0000 S   0  0  0  0  0  0  0  0  0  0  0  0
    0.7269   -4.4270    0.0000 O   0  0  0  0  0  0  0  0  0  0  0  0
   -0.0981   -2.9980    0.0000 O   0  0  0  0  0  0  0  0  0  0  0  0
   -0.4001   -4.1250    0.0000 C   0  0  0  0  0  0  0  0  0  0  0  0
   -1.1146   -3.7125    0.0000 C   0  0  0  0  0  0  0  0  0  0  0  0
   -1.1146   -2.8875    0.0000 N   0  0  0  0  0  0  0  0  0  0  0  0
   -0.4001   -2.4750    0.0000 N   0  0  0  0  0  0  0  0  0  0  0  0
   -0.4001   -1.6500    0.0000 C   0  0  0  0  0  0  0  0  0  0  0  0
    0.3144   -1.2375    0.0000 C   0  0  0  0  0  0  0  0  0  0  0  0
    0.3144   -0.4125    0.0000 C   0  0  0  0  0  0  0  0  0  0  0  0
    1.0288   -0.0000    0.0000 C   0  0  0  0  0  0  0  0  0  0  0  0
    1.7433   -0.4125    0.0000 C   0  0  0  0  0  0  0  0  0  0  0  0
    1.7433   -1.2375    0.0000 C   0  0  0  0  0  0  0  0  0  0  0  0
    1.0288   -1.6500    0.0000 C   0  0  0  0  0  0  0  0  0  0  0  0
   -0.4001   -0.0000    0.0000 C   0  0  0  0  0  0  0  0  0  0  0  0
   -1.1146   -0.4125    0.0000 C   0  0  0  0  0  0  0  0  0  0  0  0
   -1.1146   -1.2375    0.0000 C   0  0  0  0  0  0  0  0  0  0  0  0
   -1.8290   -1.6500    0.0000 O   0  0  0  0  0  0  0  0  0  0  0  0
   -1.8290   -4.1250    0.0000 C   0  0  0  0  0  0  0  0  0  0  0  0
   -1.8290   -4.9500    0.0000 C   0  0  0  0  0  0  0  0  0  0  0  0
   -2.5435   -5.3625    0.0000 Cl  0  0  0  0  0  0  0  0  0  0  0  0
   -1.1146   -5.3625    0.0000 C   0  0  0  0  0  0  0  0  0  0  0  0
   -1.1146   -6.1875    0.0000 C   0  0  0  0  0  0  0  0  0  0  0  0
   -0.4001   -4.9500    0.0000 C   0  0  0  0  0  0  0  0  0  0  0  0
  1  2  1  0  0  0  0
  2  3  2  0  0  0  0
  2  4  2  0  0  0  0
  2  5  1  0  0  0  0
  6  5  1  0  0  0  0
  7  6  1  4  0  0  0
  7  8  2  0  0  0  0
  8  9  1  0  0  0  0
 10  9  1  0  0  0  0
 10 11  1  0  0  0  0
 11 12  2  0  0  0  0
 12 13  1  0  0  0  0
 13 14  2  0  0  0  0
 14 15  1  0  0  0  0
 15 10  2  0  0  0  0
 16 11  1  0  0  0  0
 17 16  2  0  0  0  0
 18 17  1  0  0  0  0
  9 18  2  0  0  0  0
 18 19  1  0  0  0  0
 20  6  2  0  0  0  0
 21 20  1  0  0  0  0
 21 22  1  0  0  0  0
 23 21  2  0  0  0  0
 23 24  1  0  0  0  0
 25 23  1  0  0  0  0
  5 25  2  0  0  0  0
M  END
> <RowID>
1509

> <Original_SMILES>
[Ba+2].CC1C=C(C(=CC=1Cl)N=NC1=C2C=CC=CC2=CC=C1O)S([O-])(=O)=O.CC1C=C(C(=CC=1Cl)N=NC1=C2C=CC=CC2=CC=C1O)S([O-])(=O)=O

> <Canonical_QSARr>
CC1C=C(C(=CC=1Cl)N=NC1C2=CC=CC=C2C=CC=1O)S(O)(=O)=O

> <InChI_Code_QSARr>
InChI=1S/C17H13ClN2O4S/c1-10-8-16(25(22,23)24)14(9-13(10)18)19-20-17-12-5-3-2-4-11(12)6-7-15(17)21/h2-9,21H,1H3,(H,22,23,24)

> <InChI Key_QSARr>
JUUQHENXZBKKIF-UHFFFAOYSA-N

> <Salt_Solvent>
[Ba+2]

> <Salt_Solvent_ID>
560

> <Number of connected components>
3

$$$$
Molecule_1510
  Mrv2316 01072400032D          

 23 25  0  0  0  0            999 V2000
   -4.3489    2.3674    0.0000 C   0  0  0  0  0  0  0  0  0  0  0  0
   -3.6345    1.9549    0.0000 C   0  0  0  0  0  0  0  0  0  0  0  0
   -3.6345    1.1299    0.0000 O   0  0  0  0  0  0  0  0  0  0  0  0
   -2.9200    0.7174    0.0000 C   0  0  0  0  0  0  0  0  0  0  0  0
   -2.9200   -0.1076    0.0000 C   0  0  0  0  0  0  0  0  0  0  0  0
   -2.2055   -0.5201    0.0000 C   0  0  0  0  0  0  0  0  0  0  0  0
   -1.4910   -0.1076    0.0000 C   0  0  0  0  0  0  0  0  0  0  0  0
   -0.7766   -0.5201    0.0000 N   0  0  0  0  0  0  0  0  0  0  0  0
   -0.0621   -0.1076    0.0000 C   0  0  0  0  0  0  0  0  0  0  0  0
   -0.0621    0.7174    0.0000 O   0  0  0  0  0  0  0  0  0  0  0  0
    0.6524   -0.5201    0.0000 C   0  0  0  0  0  0  0  0  0  0  0  0
    1.3668   -0.1076    0.0000 C   0  0  0  0  0  0  0  0  0  0  0  0
    2.0813   -0.5201    0.0000 C   0  0  0  0  0  0  0  0  0  0  0  0
    2.7958   -0.1076    0.0000 C   0  0  0  0  0  0  0  0  0  0  0  0
    3.5102   -0.5201    0.0000 C   0  0  0  0  0  0  0  0  0  0  0  0
    3.5102   -1.3451    0.0000 C   0  0  0  0  0  0  0  0  0  0  0  0
    2.7958   -1.7576    0.0000 C   0  0  0  0  0  0  0  0  0  0  0  0
    2.0813   -1.3451    0.0000 C   0  0  0  0  0  0  0  0  0  0  0  0
    1.3668   -1.7576    0.0000 C   0  0  0  0  0  0  0  0  0  0  0  0
    0.6524   -1.3451    0.0000 C   0  0  0  0  0  0  0  0  0  0  0  0
   -0.0621   -1.7576    0.0000 O   0  0  0  0  0  0  0  0  0  0  0  0
   -1.4910    0.7174    0.0000 C   0  0  0  0  0  0  0  0  0  0  0  0
   -2.2055    1.1299    0.0000 C   0  0  0  0  0  0  0  0  0  0  0  0
  1  2  1  0  0  0  0
  2  3  1  0  0  0  0
  3  4  1  0  0  0  0
  5  4  1  0  0  0  0
  6  5  2  0  0  0  0
  7  6  1  0  0  0  0
  7  8  1  0  0  0  0
  8  9  1  0  0  0  0
  9 10  2  0  0  0  0
  9 11  1  0  0  0  0
 12 11  1  0  0  0  0
 13 12  2  0  0  0  0
 13 14  1  0  0  0  0
 14 15  2  0  0  0  0
 15 16  1  0  0  0  0
 16 17  2  0  0  0  0
 17 18  1  0  0  0  0
 18 13  1  0  0  0  0
 19 18  2  0  0  0  0
 20 19  1  0  0  0  0
 11 20  2  0  0  0  0
 20 21  1  0  0  0  0
 22  7  2  0  0  0  0
 23 22  1  0  0  0  0
  4 23  2  0  0  0  0
M  END
> <RowID>
1510

> <Original_SMILES>
CCOC1C=CC(=CC=1)NC(=O)C1C=C2C=CC=CC2=CC=1O

> <Canonical_QSARr>
CCOC1C=CC(=CC=1)NC(=O)C1C=C2C=CC=CC2=CC=1O

> <InChI_Code_QSARr>
InChI=1S/C19H17NO3/c1-2-23-16-9-7-15(8-10-16)20-19(22)17-11-13-5-3-4-6-14(13)12-18(17)21/h3-12,21H,2H2,1H3,(H,20,22)

> <InChI Key_QSARr>
FYJKEJZGNQVNLC-UHFFFAOYSA-N

> <Salt_Solvent>


> <Salt_Solvent_ID>
0

> <Number of connected components>
1

$$$$
Molecule_1511
  Mrv2316 01072400032D          

 11 11  0  0  0  0            999 V2000
    2.5981   -1.2000    0.0000 C   0  0  0  0  0  0  0  0  0  0  0  0
    1.8836   -0.7875    0.0000 C   0  0  0  0  0  0  0  0  0  0  0  0
    1.8836    0.0375    0.0000 C   0  0  0  0  0  0  0  0  0  0  0  0
    1.1691    0.4500    0.0000 C   0  0  0  0  0  0  0  0  0  0  0  0
    1.1691    1.2750    0.0000 C   0  0  0  0  0  0  0  0  0  0  0  0
    0.4547    0.0375    0.0000 C   0  0  0  0  0  0  0  0  0  0  0  0
   -0.2598    0.4500    0.0000 N   0  3  0  0  0  0  0  0  0  0  0  0
   -0.9743    0.0375    0.0000 O   0  5  0  0  0  0  0  0  0  0  0  0
   -0.2598    1.2750    0.0000 O   0  0  0  0  0  0  0  0  0  0  0  0
    0.4547   -0.7875    0.0000 C   0  0  0  0  0  0  0  0  0  0  0  0
    1.1691   -1.2000    0.0000 C   0  0  0  0  0  0  0  0  0  0  0  0
  1  2  1  0  0  0  0
  3  2  2  0  0  0  0
  4  3  1  0  0  0  0
  4  5  1  0  0  0  0
  6  4  2  0  0  0  0
  6  7  1  0  0  0  0
  7  8  1  0  0  0  0
  7  9  2  0  0  0  0
 10  6  1  0  0  0  0
 11 10  2  0  0  0  0
  2 11  1  0  0  0  0
M  CHG  2   7   1   8  -1
M  END
> <RowID>
1511

> <Original_SMILES>
CC1=CC(C)=C(C=C1)[N+]([O-])=O

> <Canonical_QSARr>
CC1=CC(C)=C(C=C1)[N+]([O-])=O

> <InChI_Code_QSARr>
InChI=1S/C8H9NO2/c1-6-3-4-8(9(10)11)7(2)5-6/h3-5H,1-2H3

> <InChI Key_QSARr>
BBUPBICWUURTNP-UHFFFAOYSA-N

> <Salt_Solvent>


> <Salt_Solvent_ID>
0

> <Number of connected components>
1

$$$$
Molecule_1512
  Mrv2316 01072400032D          

 12 12  0  0  0  0            999 V2000
    2.3220    1.9594    0.0000 O   0  0  0  0  0  0  0  0  0  0  0  0
    1.6076    1.5469    0.0000 S   0  0  0  0  0  0  0  0  0  0  0  0
    1.1951    2.2613    0.0000 O   0  0  0  0  0  0  0  0  0  0  0  0
    2.0201    0.8324    0.0000 O   0  0  0  0  0  0  0  0  0  0  0  0
    0.8931    1.1344    0.0000 C   0  0  0  0  0  0  0  0  0  0  0  0
    0.1786    1.5469    0.0000 C   0  0  0  0  0  0  0  0  0  0  0  0
    0.1786    2.3719    0.0000 N   0  0  0  0  0  0  0  0  0  0  0  0
   -0.5358    1.1344    0.0000 C   0  0  0  0  0  0  0  0  0  0  0  0
   -0.5358    0.3094    0.0000 C   0  0  0  0  0  0  0  0  0  0  0  0
    0.1786   -0.1031    0.0000 C   0  0  0  0  0  0  0  0  0  0  0  0
    0.1786   -0.9281    0.0000 C   0  0  0  0  0  0  0  0  0  0  0  0
    0.8931    0.3094    0.0000 C   0  0  0  0  0  0  0  0  0  0  0  0
  1  2  1  0  0  0  0
  2  3  2  0  0  0  0
  2  4  2  0  0  0  0
  2  5  1  0  0  0  0
  6  5  1  0  0  0  0
  6  7  1  0  0  0  0
  8  6  2  0  0  0  0
  9  8  1  0  0  0  0
 10  9  2  0  0  0  0
 10 11  1  0  0  0  0
 12 10  1  0  0  0  0
  5 12  2  0  0  0  0
M  END
> <RowID>
1512

> <Original_SMILES>
[Na+].CC1=CC(=C(N)C=C1)S([O-])(=O)=O

> <Canonical_QSARr>
CC1C=C(C(N)=CC=1)S(O)(=O)=O

> <InChI_Code_QSARr>
InChI=1S/C7H9NO3S/c1-5-2-3-6(8)7(4-5)12(9,10)11/h2-4H,8H2,1H3,(H,9,10,11)

> <InChI Key_QSARr>
LTPSRQRIPCVMKQ-UHFFFAOYSA-N

> <Salt_Solvent>
[Na+]

> <Salt_Solvent_ID>
110

> <Number of connected components>
2

$$$$
Molecule_1513
  Mrv2316 01072400032D          

 21 20  0  0  0  0            999 V2000
    8.4711    5.7158    0.0000 C   0  0  0  0  0  0  0  0  0  0  0  0
    9.1855    6.1283    0.0000 C   0  0  0  0  0  0  0  0  0  0  0  0
    9.9000    5.7158    0.0000 C   0  0  0  0  0  0  0  0  0  0  0  0
   10.6145    6.1283    0.0000 C   0  0  0  0  0  0  0  0  0  0  0  0
   11.3289    5.7158    0.0000 C   0  0  0  0  0  0  0  0  0  0  0  0
   12.0434    6.1283    0.0000 C   0  0  0  0  0  0  0  0  0  0  0  0
   12.7579    5.7158    0.0000 C   0  0  0  0  0  0  0  0  0  0  0  0
   13.4723    6.1283    0.0000 C   0  0  0  0  0  0  0  0  0  0  0  0
   14.1868    5.7158    0.0000 C   0  0  0  0  0  0  0  0  0  0  0  0
   14.9013    6.1283    0.0000 C   0  0  0  0  0  0  0  0  0  0  0  0
   15.6158    5.7158    0.0000 C   0  0  0  0  0  0  0  0  0  0  0  0
   16.3302    6.1283    0.0000 C   0  0  0  0  0  0  0  0  0  0  0  0
   17.0447    5.7158    0.0000 C   0  0  0  0  0  0  0  0  0  0  0  0
   17.7592    6.1283    0.0000 C   0  0  0  0  0  0  0  0  0  0  0  0
   18.4736    5.7158    0.0000 C   0  0  0  0  0  0  0  0  0  0  0  0
   19.1881    6.1283    0.0000 C   0  0  0  0  0  0  0  0  0  0  0  0
   19.1881    6.9533    0.0000 O   0  0  0  0  0  0  0  0  0  0  0  0
   19.9026    5.7158    0.0000 O   0  0  0  0  0  0  0  0  0  0  0  0
   20.6171    6.1283    0.0000 C   0  0  0  0  0  0  0  0  0  0  0  0
   21.3315    5.7158    0.0000 C   0  0  0  0  0  0  0  0  0  0  0  0
   22.0460    6.1283    0.0000 O   0  0  0  0  0  0  0  0  0  0  0  0
  1  2  1  0  0  0  0
  2  3  1  0  0  0  0
  3  4  1  0  0  0  0
  4  5  1  0  0  0  0
  5  6  1  0  0  0  0
  6  7  1  0  0  0  0
  7  8  1  0  0  0  0
  8  9  1  0  0  0  0
  9 10  1  0  0  0  0
 10 11  1  0  0  0  0
 11 12  1  0  0  0  0
 12 13  1  0  0  0  0
 13 14  1  0  0  0  0
 14 15  1  0  0  0  0
 15 16  1  0  0  0  0
 16 17  2  0  0  0  0
 16 18  1  0  0  0  0
 18 19  1  0  0  0  0
 19 20  1  0  0  0  0
 20 21  1  0  0  0  0
M  END
> <RowID>
1513

> <Original_SMILES>
CCCCCCCCCCCCCCCC(=O)OCCO

> <Canonical_QSARr>
CCCCCCCCCCCCCCCC(=O)OCCO

> <InChI_Code_QSARr>
InChI=1S/C18H36O3/c1-2-3-4-5-6-7-8-9-10-11-12-13-14-15-18(20)21-17-16-19/h19H,2-17H2,1H3

> <InChI Key_QSARr>
BXCRLBBIZJSWNS-UHFFFAOYSA-N

> <Salt_Solvent>


> <Salt_Solvent_ID>
0

> <Number of connected components>
1

$$$$
Molecule_1514
  Mrv2316 01072400032D          

  6  5  0  0  0  0            999 V2000
    2.0625    0.7145    0.0000 O   0  0  0  0  0  0  0  0  0  0  0  0
    1.6500   -0.0000    0.0000 C   0  0  0  0  0  0  0  0  0  0  0  0
    0.8250    0.0000    0.0000 C   0  0  0  0  0  0  0  0  0  0  0  0
    0.0000    0.0000    0.0000 C   0  0  0  0  0  0  0  0  0  0  0  0
   -0.8250   -0.0000    0.0000 C   0  0  0  0  0  0  0  0  0  0  0  0
   -1.2375   -0.7145    0.0000 O   0  0  0  0  0  0  0  0  0  0  0  0
  1  2  1  0  0  0  0
  2  3  1  0  0  0  0
  3  4  3  0  0  0  0
  4  5  1  0  0  0  0
  5  6  1  0  0  0  0
M  END
> <RowID>
1514

> <Original_SMILES>
OCC#CCO

> <Canonical_QSARr>
OCC#CCO

> <InChI_Code_QSARr>
InChI=1S/C4H6O2/c5-3-1-2-4-6/h5-6H,3-4H2

> <InChI Key_QSARr>
DLDJFQGPPSQZKI-UHFFFAOYSA-N

> <Salt_Solvent>


> <Salt_Solvent_ID>
0

> <Number of connected components>
1

$$$$
Molecule_1515
  Mrv2316 01072400032D          

  6  5  0  0  0  0            999 V2000
    2.8875   -0.7145    0.0000 N   0  0  0  0  0  0  0  0  0  0  0  0
    2.0625   -0.7145    0.0000 C   0  0  0  0  0  0  0  0  0  0  0  0
    1.6500   -1.4289    0.0000 N   0  0  0  0  0  0  0  0  0  0  0  0
    1.6500   -0.0000    0.0000 N   0  0  0  0  0  0  0  0  0  0  0  0
    0.8250   -0.0000    0.0000 C   0  0  0  0  0  0  0  0  0  0  0  0
    0.0000   -0.0000    0.0000 N   0  0  0  0  0  0  0  0  0  0  0  0
  1  2  1  0  0  0  0
  2  3  2  0  0  0  0
  2  4  1  0  0  0  0
  4  5  1  0  0  0  0
  5  6  3  0  0  0  0
M  END
> <RowID>
1515

> <Original_SMILES>
NC(=N)NC#N

> <Canonical_QSARr>
NC(=N)NC#N

> <InChI_Code_QSARr>
InChI=1S/C2H4N4/c3-1-6-2(4)5/h(H4,4,5,6)

> <InChI Key_QSARr>
QGBSISYHAICWAH-UHFFFAOYSA-N

> <Salt_Solvent>


> <Salt_Solvent_ID>
0

> <Number of connected components>
1

$$$$
Molecule_1516
  Mrv2316 01072400032D          

 85 84  0  0  0  0            999 V2000
   -5.4434    0.1914    0.0000 C   0  0  0  0  0  0  0  0  0  0  0  0
   -4.6184    0.1914    0.0000 C   0  0  0  0  0  0  0  0  0  0  0  0
   -4.2059    0.9059    0.0000 C   0  0  0  0  0  0  0  0  0  0  0  0
   -4.2059   -0.5230    0.0000 C   0  0  0  0  0  0  0  0  0  0  0  0
   -3.3809   -0.5230    0.0000 C   0  0  0  0  0  0  0  0  0  0  0  0
   -2.9684   -1.2375    0.0000 C   0  0  0  0  0  0  0  0  0  0  0  0
   -2.1434   -1.2375    0.0000 C   0  0  0  0  0  0  0  0  0  0  0  0
   -1.7309   -1.9520    0.0000 C   0  0  0  0  0  0  0  0  0  0  0  0
   -0.9059   -1.9520    0.0000 C   0  0  0  0  0  0  0  0  0  0  0  0
   -0.4934   -2.6665    0.0000 C   0  0  0  0  0  0  0  0  0  0  0  0
    0.3316   -2.6665    0.0000 C   0  0  0  0  0  0  0  0  0  0  0  0
    0.7441   -3.3809    0.0000 C   0  0  0  0  0  0  0  0  0  0  0  0
    1.5691   -3.3809    0.0000 C   0  0  0  0  0  0  0  0  0  0  0  0
    1.9816   -4.0954    0.0000 C   0  0  0  0  0  0  0  0  0  0  0  0
    2.8066   -4.0954    0.0000 C   0  0  0  0  0  0  0  0  0  0  0  0
    3.2191   -4.8099    0.0000 C   0  0  0  0  0  0  0  0  0  0  0  0
    4.0441   -4.8099    0.0000 C   0  0  0  0  0  0  0  0  0  0  0  0
    4.4566   -5.5243    0.0000 C   0  0  0  0  0  0  0  0  0  0  0  0
    4.0441   -6.2388    0.0000 O   0  0  0  0  0  0  0  0  0  0  0  0
    5.2816   -5.5243    0.0000 O   0  0  0  0  0  0  0  0  0  0  0  0
    5.6941   -6.2388    0.0000 C   0  0  0  0  0  0  0  0  0  0  0  0
    6.5191   -6.2388    0.0000 C   0  0  0  0  0  0  0  0  0  0  0  0
    7.3441   -6.2388    0.0000 C   0  0  0  0  0  0  0  0  0  0  0  0
    7.7566   -6.9533    0.0000 O   0  0  0  0  0  0  0  0  0  0  0  0
    8.5816   -6.9533    0.0000 C   0  0  0  0  0  0  0  0  0  0  0  0
    8.9941   -6.2388    0.0000 O   0  0  0  0  0  0  0  0  0  0  0  0
    8.9941   -7.6677    0.0000 C   0  0  0  0  0  0  0  0  0  0  0  0
    9.8191   -7.6677    0.0000 C   0  0  0  0  0  0  0  0  0  0  0  0
   10.2316   -8.3822    0.0000 C   0  0  0  0  0  0  0  0  0  0  0  0
   11.0566   -8.3822    0.0000 C   0  0  0  0  0  0  0  0  0  0  0  0
   11.4691   -9.0967    0.0000 C   0  0  0  0  0  0  0  0  0  0  0  0
   12.2941   -9.0967    0.0000 C   0  0  0  0  0  0  0  0  0  0  0  0
   12.7066   -9.8112    0.0000 C   0  0  0  0  0  0  0  0  0  0  0  0
   13.5316   -9.8112    0.0000 C   0  0  0  0  0  0  0  0  0  0  0  0
   13.9441  -10.5256    0.0000 C   0  0  0  0  0  0  0  0  0  0  0  0
   14.7691  -10.5256    0.0000 C   0  0  0  0  0  0  0  0  0  0  0  0
   15.1816  -11.2401    0.0000 C   0  0  0  0  0  0  0  0  0  0  0  0
   16.0066  -11.2401    0.0000 C   0  0  0  0  0  0  0  0  0  0  0  0
   16.4191  -11.9546    0.0000 C   0  0  0  0  0  0  0  0  0  0  0  0
   17.2441  -11.9546    0.0000 C   0  0  0  0  0  0  0  0  0  0  0  0
   17.6566  -12.6690    0.0000 C   0  0  0  0  0  0  0  0  0  0  0  0
   18.4816  -12.6690    0.0000 C   0  0  0  0  0  0  0  0  0  0  0  0
   17.2441  -13.3835    0.0000 C   0  0  0  0  0  0  0  0  0  0  0  0
    6.5191   -7.0638    0.0000 C   0  0  0  0  0  0  0  0  0  0  0  0
    7.2336   -7.4763    0.0000 O   0  0  0  0  0  0  0  0  0  0  0  0
    7.2336   -8.3013    0.0000 C   0  0  0  0  0  0  0  0  0  0  0  0
    6.5191   -8.7138    0.0000 O   0  0  0  0  0  0  0  0  0  0  0  0
    7.9480   -8.7138    0.0000 C   0  0  0  0  0  0  0  0  0  0  0  0
    7.9480   -9.5388    0.0000 C   0  0  0  0  0  0  0  0  0  0  0  0
    8.6625   -9.9513    0.0000 C   0  0  0  0  0  0  0  0  0  0  0  0
    8.6625  -10.7763    0.0000 C   0  0  0  0  0  0  0  0  0  0  0  0
    9.3770  -11.1888    0.0000 C   0  0  0  0  0  0  0  0  0  0  0  0
    9.3770  -12.0138    0.0000 C   0  0  0  0  0  0  0  0  0  0  0  0
   10.0914  -12.4263    0.0000 C   0  0  0  0  0  0  0  0  0  0  0  0
   10.0914  -13.2513    0.0000 C   0  0  0  0  0  0  0  0  0  0  0  0
   10.8059  -13.6638    0.0000 C   0  0  0  0  0  0  0  0  0  0  0  0
   10.8059  -14.4888    0.0000 C   0  0  0  0  0  0  0  0  0  0  0  0
   11.5204  -14.9013    0.0000 C   0  0  0  0  0  0  0  0  0  0  0  0
   11.5204  -15.7263    0.0000 C   0  0  0  0  0  0  0  0  0  0  0  0
   12.2349  -16.1388    0.0000 C   0  0  0  0  0  0  0  0  0  0  0  0
   12.2349  -16.9638    0.0000 C   0  0  0  0  0  0  0  0  0  0  0  0
   12.9493  -17.3763    0.0000 C   0  0  0  0  0  0  0  0  0  0  0  0
   13.6638  -16.9638    0.0000 C   0  0  0  0  0  0  0  0  0  0  0  0
   12.9493  -18.2013    0.0000 C   0  0  0  0  0  0  0  0  0  0  0  0
    6.5191   -5.4138    0.0000 C   0  0  0  0  0  0  0  0  0  0  0  0
    7.2336   -5.0013    0.0000 O   0  0  0  0  0  0  0  0  0  0  0  0
    7.9480   -5.4138    0.0000 C   0  0  0  0  0  0  0  0  0  0  0  0
    7.9480   -6.2388    0.0000 O   0  0  0  0  0  0  0  0  0  0  0  0
    8.6625   -5.0013    0.0000 C   0  0  0  0  0  0  0  0  0  0  0  0
    9.3770   -5.4138    0.0000 C   0  0  0  0  0  0  0  0  0  0  0  0
   10.0914   -5.0013    0.0000 C   0  0  0  0  0  0  0  0  0  0  0  0
   10.8059   -5.4138    0.0000 C   0  0  0  0  0  0  0  0  0  0  0  0
   11.5204   -5.0013    0.0000 C   0  0  0  0  0  0  0  0  0  0  0  0
   12.2349   -5.4138    0.0000 C   0  0  0  0  0  0  0  0  0  0  0  0
   12.9493   -5.0013    0.0000 C   0  0  0  0  0  0  0  0  0  0  0  0
   13.6638   -5.4138    0.0000 C   0  0  0  0  0  0  0  0  0  0  0  0
   14.3783   -5.0013    0.0000 C   0  0  0  0  0  0  0  0  0  0  0  0
   15.0927   -5.4138    0.0000 C   0  0  0  0  0  0  0  0  0  0  0  0
   15.8072   -5.0013    0.0000 C   0  0  0  0  0  0  0  0  0  0  0  0
   16.5217   -5.4138    0.0000 C   0  0  0  0  0  0  0  0  0  0  0  0
   17.2362   -5.0013    0.0000 C   0  0  0  0  0  0  0  0  0  0  0  0
   17.9506   -5.4138    0.0000 C   0  0  0  0  0  0  0  0  0  0  0  0
   18.6651   -5.0013    0.0000 C   0  0  0  0  0  0  0  0  0  0  0  0
   18.6651   -4.1763    0.0000 C   0  0  0  0  0  0  0  0  0  0  0  0
   19.3796   -5.4138    0.0000 C   0  0  0  0  0  0  0  0  0  0  0  0
  1  2  1  0  0  0  0
  2  3  1  0  0  0  0
  2  4  1  0  0  0  0
  4  5  1  0  0  0  0
  5  6  1  0  0  0  0
  6  7  1  0  0  0  0
  7  8  1  0  0  0  0
  8  9  1  0  0  0  0
  9 10  1  0  0  0  0
 10 11  1  0  0  0  0
 11 12  1  0  0  0  0
 12 13  1  0  0  0  0
 13 14  1  0  0  0  0
 14 15  1  0  0  0  0
 15 16  1  0  0  0  0
 16 17  1  0  0  0  0
 17 18  1  0  0  0  0
 18 19  2  0  0  0  0
 18 20  1  0  0  0  0
 20 21  1  0  0  0  0
 21 22  1  0  0  0  0
 22 23  1  0  0  0  0
 23 24  1  0  0  0  0
 24 25  1  0  0  0  0
 25 26  2  0  0  0  0
 25 27  1  0  0  0  0
 27 28  1  0  0  0  0
 28 29  1  0  0  0  0
 29 30  1  0  0  0  0
 30 31  1  0  0  0  0
 31 32  1  0  0  0  0
 32 33  1  0  0  0  0
 33 34  1  0  0  0  0
 34 35  1  0  0  0  0
 35 36  1  0  0  0  0
 36 37  1  0  0  0  0
 37 38  1  0  0  0  0
 38 39  1  0  0  0  0
 39 40  1  0  0  0  0
 40 41  1  0  0  0  0
 41 42  1  0  0  0  0
 41 43  1  0  0  0  0
 22 44  1  0  0  0  0
 44 45  1  0  0  0  0
 45 46  1  0  0  0  0
 46 47  2  0  0  0  0
 46 48  1  0  0  0  0
 48 49  1  0  0  0  0
 49 50  1  0  0  0  0
 50 51  1  0  0  0  0
 51 52  1  0  0  0  0
 52 53  1  0  0  0  0
 53 54  1  0  0  0  0
 54 55  1  0  0  0  0
 55 56  1  0  0  0  0
 56 57  1  0  0  0  0
 57 58  1  0  0  0  0
 58 59  1  0  0  0  0
 59 60  1  0  0  0  0
 60 61  1  0  0  0  0
 61 62  1  0  0  0  0
 62 63  1  0  0  0  0
 62 64  1  0  0  0  0
 22 65  1  0  0  0  0
 65 66  1  0  0  0  0
 66 67  1  0  0  0  0
 67 68  2  0  0  0  0
 67 69  1  0  0  0  0
 69 70  1  0  0  0  0
 70 71  1  0  0  0  0
 71 72  1  0  0  0  0
 72 73  1  0  0  0  0
 73 74  1  0  0  0  0
 74 75  1  0  0  0  0
 75 76  1  0  0  0  0
 76 77  1  0  0  0  0
 77 78  1  0  0  0  0
 78 79  1  0  0  0  0
 79 80  1  0  0  0  0
 80 81  1  0  0  0  0
 81 82  1  0  0  0  0
 82 83  1  0  0  0  0
 83 84  1  0  0  0  0
 83 85  1  0  0  0  0
M  END
> <RowID>
1516

> <Original_SMILES>
CC(C)CCCCCCCCCCCCCCC(=O)OCC(COC(=O)CCCCCCCCCCCCCCC(C)C)(COC(=O)CCCCCCCCCCCCCCC(C)C)COC(=O)CCCCCCCCCCCCCCC(C)C

> <Canonical_QSARr>
CC(C)CCCCCCCCCCCCCCC(=O)OCC(COC(=O)CCCCCCCCCCCCCCC(C)C)(COC(=O)CCCCCCCCCCCCCCC(C)C)COC(=O)CCCCCCCCCCCCCCC(C)C

> <InChI_Code_QSARr>
InChI=1S/C77H148O8/c1-69(2)57-49-41-33-25-17-9-13-21-29-37-45-53-61-73(78)82-65-77(66-83-74(79)62-54-46-38-30-22-14-10-18-26-34-42-50-58-70(3)4,67-84-75(80)63-55-47-39-31-23-15-11-19-27-35-43-51-59-71(5)6)68-85-76(81)64-56-48-40-32-24-16-12-20-28-36-44-52-60-72(7)8/h69-72H,9-68H2,1-8H3

> <InChI Key_QSARr>
LPGFSDGXTDNTCB-UHFFFAOYSA-N

> <Salt_Solvent>


> <Salt_Solvent_ID>
0

> <Number of connected components>
1

$$$$
Molecule_1517
  Mrv2316 01072400032D          

 10  9  0  0  0  0            999 V2000
    2.9980   -2.5559    0.0000 C   0  0  0  0  0  0  0  0  0  0  0  0
    3.7125   -2.1434    0.0000 C   0  0  0  0  0  0  0  0  0  0  0  0
    4.4270   -2.5559    0.0000 C   0  0  0  0  0  0  0  0  0  0  0  0
    5.1414   -2.1434    0.0000 C   0  0  0  0  0  0  0  0  0  0  0  0
    5.8559   -2.5559    0.0000 O   0  0  0  0  0  0  0  0  0  0  0  0
    6.5704   -2.1434    0.0000 C   0  0  0  0  0  0  0  0  0  0  0  0
    6.5704   -1.3184    0.0000 O   0  0  0  0  0  0  0  0  0  0  0  0
    7.2849   -2.5559    0.0000 C   0  0  0  0  0  0  0  0  0  0  0  0
    7.9993   -2.1434    0.0000 C   0  0  0  0  0  0  0  0  0  0  0  0
    8.7138   -1.7309    0.0000 N   0  0  0  0  0  0  0  0  0  0  0  0
  1  2  1  0  0  0  0
  2  3  1  0  0  0  0
  3  4  1  0  0  0  0
  4  5  1  0  0  0  0
  5  6  1  0  0  0  0
  6  7  2  0  0  0  0
  6  8  1  0  0  0  0
  8  9  1  0  0  0  0
  9 10  3  0  0  0  0
M  END
> <RowID>
1517

> <Original_SMILES>
CCCCOC(=O)CC#N

> <Canonical_QSARr>
CCCCOC(=O)CC#N

> <InChI_Code_QSARr>
InChI=1S/C7H11NO2/c1-2-3-6-10-7(9)4-5-8/h2-4,6H2,1H3

> <InChI Key_QSARr>
DJACTCNGCHPGOI-UHFFFAOYSA-N

> <Salt_Solvent>


> <Salt_Solvent_ID>
0

> <Number of connected components>
1

$$$$
Molecule_1518
  Mrv2316 01072400032D          

  8  8  0  0  0  0            999 V2000
    1.2822    2.3518    0.0000 O   0  0  0  0  0  0  0  0  0  0  0  0
    0.5678    1.9393    0.0000 C   0  0  0  0  0  0  0  0  0  0  0  0
   -0.1467    2.3518    0.0000 O   0  0  0  0  0  0  0  0  0  0  0  0
    0.5678    1.1143    0.0000 C   0  0  0  0  0  0  0  0  0  0  0  0
   -0.0997    0.6294    0.0000 C   0  0  0  0  0  0  0  0  0  0  0  0
    0.1553   -0.1553    0.0000 C   0  0  0  0  0  0  0  0  0  0  0  0
    0.9803   -0.1553    0.0000 C   0  0  0  0  0  0  0  0  0  0  0  0
    1.2352    0.6294    0.0000 N   0  0  0  0  0  0  0  0  0  0  0  0
  1  2  1  0  0  0  0
  2  3  2  0  0  0  0
  2  4  1  0  0  0  0
  5  4  1  0  0  0  0
  6  5  1  0  0  0  0
  7  6  1  0  0  0  0
  8  7  1  0  0  0  0
  4  8  1  0  0  0  0
M  END
> <RowID>
1518

> <Original_SMILES>
OC(=O)C1CCCN1

> <Canonical_QSARr>
OC(=O)C1CCCN1

> <InChI_Code_QSARr>
InChI=1S/C5H9NO2/c7-5(8)4-2-1-3-6-4/h4,6H,1-3H2,(H,7,8)

> <InChI Key_QSARr>
ONIBWKKTOPOVIA-UHFFFAOYSA-N

> <Salt_Solvent>


> <Salt_Solvent_ID>
0

> <Number of connected components>
1

$$$$
Molecule_1519
  Mrv2316 01072400032D          

  9  9  0  0  0  0            999 V2000
   -0.5064    1.7274    0.0000 C   0  0  0  0  0  0  0  0  0  0  0  0
    0.0457    1.1143    0.0000 C   0  0  0  0  0  0  0  0  0  0  0  0
    0.5977    1.7274    0.0000 C   0  0  0  0  0  0  0  0  0  0  0  0
   -0.6218    0.6294    0.0000 C   0  0  0  0  0  0  0  0  0  0  0  0
   -0.3668   -0.1553    0.0000 O   0  0  0  0  0  0  0  0  0  0  0  0
    0.4582   -0.1553    0.0000 C   0  0  0  0  0  0  0  0  0  0  0  0
    0.9431   -0.8227    0.0000 O   0  0  0  0  0  0  0  0  0  0  0  0
    0.7131    0.6294    0.0000 C   0  0  0  0  0  0  0  0  0  0  0  0
    1.4977    0.8843    0.0000 O   0  0  0  0  0  0  0  0  0  0  0  0
  1  2  1  0  0  0  0
  2  3  1  0  0  0  0
  4  2  1  0  0  0  0
  5  4  1  0  0  0  0
  6  5  1  0  0  0  0
  6  7  2  0  0  0  0
  8  6  1  0  0  0  0
  2  8  1  0  0  0  0
  8  9  1  0  0  0  0
M  END
> <RowID>
1519

> <Original_SMILES>
CC1(C)COC(=O)C1O

> <Canonical_QSARr>
CC1(C)COC(=O)C1O

> <InChI_Code_QSARr>
InChI=1S/C6H10O3/c1-6(2)3-9-5(8)4(6)7/h4,7H,3H2,1-2H3

> <InChI Key_QSARr>
SERHXTVXHNVDKA-UHFFFAOYSA-N

> <Salt_Solvent>


> <Salt_Solvent_ID>
0

> <Number of connected components>
1

$$$$
Molecule_1520
  Mrv2316 01072400032D          

 11 10  0  0  0  0            999 V2000
    2.2836    2.1434    0.0000 C   0  0  0  0  0  0  0  0  0  0  0  0
    2.9980    2.5559    0.0000 C   0  0  0  0  0  0  0  0  0  0  0  0
    3.7125    2.1434    0.0000 C   0  0  0  0  0  0  0  0  0  0  0  0
    4.4270    2.5559    0.0000 C   0  0  0  0  0  0  0  0  0  0  0  0
    5.1414    2.1434    0.0000 C   0  0  0  0  0  0  0  0  0  0  0  0
    5.8559    2.5559    0.0000 C   0  0  0  0  0  0  0  0  0  0  0  0
    6.5704    2.1434    0.0000 C   0  0  0  0  0  0  0  0  0  0  0  0
    7.2849    2.5559    0.0000 C   0  0  0  0  0  0  0  0  0  0  0  0
    7.2849    3.3809    0.0000 O   0  0  0  0  0  0  0  0  0  0  0  0
    7.9993    2.1434    0.0000 O   0  0  0  0  0  0  0  0  0  0  0  0
    8.7138    2.5559    0.0000 C   0  0  0  0  0  0  0  0  0  0  0  0
  1  2  1  0  0  0  0
  2  3  1  0  0  0  0
  3  4  1  0  0  0  0
  4  5  1  0  0  0  0
  5  6  1  0  0  0  0
  6  7  1  0  0  0  0
  7  8  1  0  0  0  0
  8  9  2  0  0  0  0
  8 10  1  0  0  0  0
 10 11  1  0  0  0  0
M  END
> <RowID>
1520

> <Original_SMILES>
CCCCCCCC(=O)OC

> <Canonical_QSARr>
CCCCCCCC(=O)OC

> <InChI_Code_QSARr>
InChI=1S/C9H18O2/c1-3-4-5-6-7-8-9(10)11-2/h3-8H2,1-2H3

> <InChI Key_QSARr>
JGHZJRVDZXSNKQ-UHFFFAOYSA-N

> <Salt_Solvent>


> <Salt_Solvent_ID>
0

> <Number of connected components>
1

$$$$
Molecule_1521
  Mrv2316 01072400032D          

 40 44  0  0  0  0            999 V2000
    6.4302    3.7744    0.0000 C   0  0  0  0  0  0  0  0  0  0  0  0
    5.7158    3.3619    0.0000 C   0  0  0  0  0  0  0  0  0  0  0  0
    5.0013    3.7744    0.0000 C   0  0  0  0  0  0  0  0  0  0  0  0
    4.2868    3.3619    0.0000 C   0  0  0  0  0  0  0  0  0  0  0  0
    3.5724    3.7744    0.0000 C   0  0  0  0  0  0  0  0  0  0  0  0
    2.8579    3.3619    0.0000 C   0  0  0  0  0  0  0  0  0  0  0  0
    4.2868    2.5369    0.0000 C   0  0  0  0  0  0  0  0  0  0  0  0
    3.5724    2.1244    0.0000 N   0  0  0  0  0  0  0  0  0  0  0  0
    3.5724    1.2994    0.0000 C   0  0  0  0  0  0  0  0  0  0  0  0
    4.2868    0.8869    0.0000 C   0  0  0  0  0  0  0  0  0  0  0  0
    4.2868    0.0619    0.0000 C   0  0  0  0  0  0  0  0  0  0  0  0
    3.5724   -0.3506    0.0000 C   0  0  0  0  0  0  0  0  0  0  0  0
    3.5724   -1.1756    0.0000 N   0  0  0  0  0  0  0  0  0  0  0  0
    4.2868   -1.5881    0.0000 C   0  0  0  0  0  0  0  0  0  0  0  0
    4.2868   -2.4131    0.0000 C   0  0  0  0  0  0  0  0  0  0  0  0
    3.5724   -2.8256    0.0000 C   0  0  0  0  0  0  0  0  0  0  0  0
    3.5724   -3.6506    0.0000 C   0  0  0  0  0  0  0  0  0  0  0  0
    5.0013   -2.8256    0.0000 C   0  0  0  0  0  0  0  0  0  0  0  0
    5.7158   -2.4131    0.0000 C   0  0  0  0  0  0  0  0  0  0  0  0
    6.4302   -2.8256    0.0000 C   0  0  0  0  0  0  0  0  0  0  0  0
    5.7158   -1.5881    0.0000 C   0  0  0  0  0  0  0  0  0  0  0  0
    5.0013   -1.1756    0.0000 C   0  0  0  0  0  0  0  0  0  0  0  0
    5.0013   -0.3506    0.0000 C   0  0  0  0  0  0  0  0  0  0  0  0
    5.7158    0.0619    0.0000 C   0  0  0  0  0  0  0  0  0  0  0  0
    2.8579    0.0619    0.0000 C   0  0  0  0  0  0  0  0  0  0  0  0
    2.8579    0.8869    0.0000 C   0  0  0  0  0  0  0  0  0  0  0  0
    2.1434    1.2994    0.0000 C   0  0  0  0  0  0  0  0  0  0  0  0
    2.1434    2.1244    0.0000 O   0  0  0  0  0  0  0  0  0  0  0  0
    1.4289    0.8869    0.0000 C   0  0  0  0  0  0  0  0  0  0  0  0
    0.7145    1.2994    0.0000 C   0  0  0  0  0  0  0  0  0  0  0  0
    0.0000    0.8869    0.0000 C   0  0  0  0  0  0  0  0  0  0  0  0
    0.0000    0.0619    0.0000 C   0  0  0  0  0  0  0  0  0  0  0  0
    0.7145   -0.3506    0.0000 C   0  0  0  0  0  0  0  0  0  0  0  0
    1.4289    0.0619    0.0000 C   0  0  0  0  0  0  0  0  0  0  0  0
    2.1434   -0.3506    0.0000 C   0  0  0  0  0  0  0  0  0  0  0  0
    2.1434   -1.1756    0.0000 O   0  0  0  0  0  0  0  0  0  0  0  0
    5.0013    2.1244    0.0000 C   0  0  0  0  0  0  0  0  0  0  0  0
    5.0013    1.2994    0.0000 C   0  0  0  0  0  0  0  0  0  0  0  0
    5.7158    0.8869    0.0000 C   0  0  0  0  0  0  0  0  0  0  0  0
    5.7158    2.5369    0.0000 C   0  0  0  0  0  0  0  0  0  0  0  0
  1  2  1  0  0  0  0
  3  2  2  0  0  0  0
  4  3  1  0  0  0  0
  4  5  1  0  0  0  0
  5  6  1  0  0  0  0
  7  4  2  0  0  0  0
  7  8  1  0  0  0  0
  8  9  1  0  0  0  0
 10  9  1  0  0  0  0
 11 10  2  0  0  0  0
 12 11  1  0  0  0  0
 12 13  1  0  0  0  0
 13 14  1  0  0  0  0
 15 14  1  0  0  0  0
 15 16  1  0  0  0  0
 16 17  1  0  0  0  0
 18 15  2  0  0  0  0
 19 18  1  0  0  0  0
 19 20  1  0  0  0  0
 21 19  2  0  0  0  0
 22 21  1  0  0  0  0
 14 22  2  0  0  0  0
 22 23  1  0  0  0  0
 23 24  1  0  0  0  0
 25 12  2  0  0  0  0
 25 26  1  0  0  0  0
  9 26  2  0  0  0  0
 26 27  1  0  0  0  0
 27 28  2  0  0  0  0
 27 29  1  0  0  0  0
 30 29  1  0  0  0  0
 31 30  2  0  0  0  0
 32 31  1  0  0  0  0
 33 32  2  0  0  0  0
 34 33  1  0  0  0  0
 29 34  2  0  0  0  0
 34 35  1  0  0  0  0
 35 25  1  0  0  0  0
 35 36  2  0  0  0  0
 37  7  1  0  0  0  0
 37 38  1  0  0  0  0
 38 39  1  0  0  0  0
 40 37  2  0  0  0  0
  2 40  1  0  0  0  0
M  END
> <RowID>
1521

> <Original_SMILES>
CC1=CC(CC)=C(NC2C=CC(NC3C(CC)=CC(C)=CC=3CC)=C3C=2C(=O)C2C=CC=CC=2C3=O)C(CC)=C1

> <Canonical_QSARr>
CC1=CC(CC)=C(NC2C=CC(NC3C(CC)=CC(C)=CC=3CC)=C3C=2C(=O)C2C=CC=CC=2C3=O)C(CC)=C1

> <InChI_Code_QSARr>
InChI=1S/C36H38N2O2/c1-7-23-17-21(5)18-24(8-2)33(23)37-29-15-16-30(38-34-25(9-3)19-22(6)20-26(34)10-4)32-31(29)35(39)27-13-11-12-14-28(27)36(32)40/h11-20,37-38H,7-10H2,1-6H3

> <InChI Key_QSARr>
IBABXJRXGSAJLQ-UHFFFAOYSA-N

> <Salt_Solvent>


> <Salt_Solvent_ID>
0

> <Number of connected components>
1

$$$$
Molecule_1522
  Mrv2316 01072400032D          

 12 13  0  0  0  0            999 V2000
   -0.0000    0.8250    0.0000 N   0  0  0  0  0  0  0  0  0  0  0  0
   -0.0000    0.0000    0.0000 C   0  0  0  0  0  0  0  0  0  0  0  0
   -0.7145   -0.4125    0.0000 C   0  0  0  0  0  0  0  0  0  0  0  0
   -0.7145   -1.2375    0.0000 C   0  0  0  0  0  0  0  0  0  0  0  0
   -0.0000   -1.6500    0.0000 C   0  0  0  0  0  0  0  0  0  0  0  0
    0.7145   -1.2375    0.0000 C   0  0  0  0  0  0  0  0  0  0  0  0
    0.7145   -0.4125    0.0000 C   0  0  0  0  0  0  0  0  0  0  0  0
    1.4289    0.0000    0.0000 C   0  0  0  0  0  0  0  0  0  0  0  0
    2.1434   -0.4125    0.0000 C   0  0  0  0  0  0  0  0  0  0  0  0
    2.1434   -1.2375    0.0000 C   0  0  0  0  0  0  0  0  0  0  0  0
    1.4289   -1.6500    0.0000 C   0  0  0  0  0  0  0  0  0  0  0  0
    1.4289   -2.4750    0.0000 N   0  0  0  0  0  0  0  0  0  0  0  0
  1  2  1  0  0  0  0
  3  2  1  0  0  0  0
  4  3  2  0  0  0  0
  5  4  1  0  0  0  0
  6  5  2  0  0  0  0
  6  7  1  0  0  0  0
  2  7  2  0  0  0  0
  7  8  1  0  0  0  0
  8  9  2  0  0  0  0
  9 10  1  0  0  0  0
 10 11  2  0  0  0  0
 11  6  1  0  0  0  0
 11 12  1  0  0  0  0
M  END
> <RowID>
1522

> <Original_SMILES>
NC1C=CC=C2C=1C=CC=C2N

> <Canonical_QSARr>
NC1C=CC=C2C=1C=CC=C2N

> <InChI_Code_QSARr>
InChI=1S/C10H10N2/c11-9-5-1-3-7-8(9)4-2-6-10(7)12/h1-6H,11-12H2

> <InChI Key_QSARr>
KQSABULTKYLFEV-UHFFFAOYSA-N

> <Salt_Solvent>


> <Salt_Solvent_ID>
0

> <Number of connected components>
1

$$$$
Molecule_1523
  Mrv2316 01072400032D          

 10  9  0  0  0  0            999 V2000
    2.9980    2.5559    0.0000 C   0  0  0  0  0  0  0  0  0  0  0  0
    3.7125    2.1434    0.0000 C   0  0  0  0  0  0  0  0  0  0  0  0
    4.4270    2.5559    0.0000 C   0  0  0  0  0  0  0  0  0  0  0  0
    5.1414    2.1434    0.0000 O   0  0  0  0  0  0  0  0  0  0  0  0
    5.8559    2.5559    0.0000 C   0  0  0  0  0  0  0  0  0  0  0  0
    5.8559    3.3809    0.0000 O   0  0  0  0  0  0  0  0  0  0  0  0
    6.5704    2.1434    0.0000 O   0  0  0  0  0  0  0  0  0  0  0  0
    7.2849    2.5559    0.0000 C   0  0  0  0  0  0  0  0  0  0  0  0
    7.9993    2.1434    0.0000 C   0  0  0  0  0  0  0  0  0  0  0  0
    8.7138    2.5559    0.0000 C   0  0  0  0  0  0  0  0  0  0  0  0
  1  2  2  0  0  0  0
  2  3  1  0  0  0  0
  3  4  1  0  0  0  0
  4  5  1  0  0  0  0
  5  6  2  0  0  0  0
  5  7  1  0  0  0  0
  7  8  1  0  0  0  0
  8  9  1  0  0  0  0
  9 10  2  0  0  0  0
M  END
> <RowID>
1523

> <Original_SMILES>
C=CCOC(=O)OCC=C

> <Canonical_QSARr>
C=CCOC(=O)OCC=C

> <InChI_Code_QSARr>
InChI=1S/C7H10O3/c1-3-5-9-7(8)10-6-4-2/h3-4H,1-2,5-6H2

> <InChI Key_QSARr>
JKJWYKGYGWOAHT-UHFFFAOYSA-N

> <Salt_Solvent>


> <Salt_Solvent_ID>
0

> <Number of connected components>
1

$$$$
Molecule_1524
  Mrv2316 01072400032D          

 37 39  0  0  0  0            999 V2000
   -4.1393   -4.9156    0.0000 O   0  0  0  0  0  0  0  0  0  0  0  0
   -3.7268   -5.6301    0.0000 S   0  0  0  0  0  0  0  0  0  0  0  0
   -3.3143   -6.3445    0.0000 O   0  0  0  0  0  0  0  0  0  0  0  0
   -4.4413   -6.0426    0.0000 O   0  0  0  0  0  0  0  0  0  0  0  0
   -3.0124   -5.2176    0.0000 C   0  0  0  0  0  0  0  0  0  0  0  0
   -3.0124   -4.3926    0.0000 C   0  0  0  0  0  0  0  0  0  0  0  0
   -2.2979   -3.9801    0.0000 C   0  0  0  0  0  0  0  0  0  0  0  0
   -2.2979   -3.1551    0.0000 S   0  0  0  0  0  0  0  0  0  0  0  0
   -1.4729   -3.1551    0.0000 O   0  0  0  0  0  0  0  0  0  0  0  0
   -2.2979   -2.3301    0.0000 O   0  0  0  0  0  0  0  0  0  0  0  0
   -3.1229   -3.1551    0.0000 O   0  0  0  0  0  0  0  0  0  0  0  0
   -1.5834   -4.3926    0.0000 C   0  0  0  0  0  0  0  0  0  0  0  0
   -0.8689   -3.9801    0.0000 C   0  0  0  0  0  0  0  0  0  0  0  0
   -0.8689   -3.1551    0.0000 C   0  0  0  0  0  0  0  0  0  0  0  0
   -0.1545   -2.7426    0.0000 C   0  0  0  0  0  0  0  0  0  0  0  0
   -0.1545   -1.9176    0.0000 C   0  0  0  0  0  0  0  0  0  0  0  0
   -0.8689   -1.5051    0.0000 C   0  0  0  0  0  0  0  0  0  0  0  0
   -0.8689   -0.6801    0.0000 N   0  0  0  0  0  0  0  0  0  0  0  0
   -1.5834   -0.2676    0.0000 C   0  0  0  0  0  0  0  0  0  0  0  0
   -1.5834    0.5574    0.0000 C   0  0  0  0  0  0  0  0  0  0  0  0
   -0.1545   -0.2676    0.0000 C   0  0  0  0  0  0  0  0  0  0  0  0
   -0.1545    0.5574    0.0000 C   0  0  0  0  0  0  0  0  0  0  0  0
   -1.5834   -1.9176    0.0000 C   0  0  0  0  0  0  0  0  0  0  0  0
   -1.5834   -2.7426    0.0000 C   0  0  0  0  0  0  0  0  0  0  0  0
   -0.1545   -4.3926    0.0000 C   0  0  0  0  0  0  0  0  0  0  0  0
   -0.1545   -5.2176    0.0000 C   0  0  0  0  0  0  0  0  0  0  0  0
    0.5600   -5.6301    0.0000 C   0  0  0  0  0  0  0  0  0  0  0  0
    1.2745   -5.2176    0.0000 C   0  0  0  0  0  0  0  0  0  0  0  0
    1.9889   -5.6301    0.0000 N   0  3  0  0  0  0  0  0  0  0  0  0
    1.9889   -6.4551    0.0000 C   0  0  0  0  0  0  0  0  0  0  0  0
    2.7034   -6.8676    0.0000 C   0  0  0  0  0  0  0  0  0  0  0  0
    2.7034   -5.2176    0.0000 C   0  0  0  0  0  0  0  0  0  0  0  0
    3.4179   -5.6301    0.0000 C   0  0  0  0  0  0  0  0  0  0  0  0
    1.2745   -4.3926    0.0000 C   0  0  0  0  0  0  0  0  0  0  0  0
    0.5600   -3.9801    0.0000 C   0  0  0  0  0  0  0  0  0  0  0  0
   -1.5834   -5.2176    0.0000 C   0  0  0  0  0  0  0  0  0  0  0  0
   -2.2979   -5.6301    0.0000 C   0  0  0  0  0  0  0  0  0  0  0  0
  1  2  1  0  0  0  0
  2  3  2  0  0  0  0
  2  4  2  0  0  0  0
  2  5  1  0  0  0  0
  6  5  2  0  0  0  0
  7  6  1  0  0  0  0
  7  8  1  0  0  0  0
  8  9  1  0  0  0  0
  8 10  2  0  0  0  0
  8 11  2  0  0  0  0
 12  7  2  0  0  0  0
 12 13  1  0  0  0  0
 13 14  1  0  0  0  0
 15 14  2  0  0  0  0
 16 15  1  0  0  0  0
 17 16  2  0  0  0  0
 17 18  1  0  0  0  0
 18 19  1  0  0  0  0
 19 20  1  0  0  0  0
 18 21  1  0  0  0  0
 21 22  1  0  0  0  0
 23 17  1  0  0  0  0
 24 23  2  0  0  0  0
 14 24  1  0  0  0  0
 13 25  2  0  0  0  0
 26 25  1  0  0  0  0
 27 26  2  0  0  0  0
 28 27  1  0  0  0  0
 28 29  2  0  0  0  0
 29 30  1  0  0  0  0
 30 31  1  0  0  0  0
 29 32  1  0  0  0  0
 32 33  1  0  0  0  0
 34 28  1  0  0  0  0
 35 34  2  0  0  0  0
 25 35  1  0  0  0  0
 36 12  1  0  0  0  0
 37 36  2  0  0  0  0
  5 37  1  0  0  0  0
M  CHG  1  29   1
M  END
> <RowID>
1524

> <Original_SMILES>
[Na+].CCN(CC)C1C=CC(=CC=1)C(C1=CC=C(C=C1S([O-])(=O)=O)S([O-])(=O)=O)=C1C=CC(C=C1)=[N+](CC)CC

> <Canonical_QSARr>
CCN(CC)C1C=CC(=CC=1)C(C1C=CC(=CC=1S(O)(=O)=O)S(O)(=O)=O)=C1C=CC(C=C1)=[N+](CC)CC

> <InChI_Code_QSARr>
InChI=1S/C27H32N2O6S2/c1-5-28(6-2)22-13-9-20(10-14-22)27(21-11-15-23(16-12-21)29(7-3)8-4)25-18-17-24(36(30,31)32)19-26(25)37(33,34)35/h9-19H,5-8H2,1-4H3,(H-,30,31,32,33,34,35)/p+1

> <InChI Key_QSARr>
IKHKJYWPWWBSFZ-UHFFFAOYSA-O

> <Salt_Solvent>
[Na+]

> <Salt_Solvent_ID>
110

> <Number of connected components>
2

$$$$
Molecule_1526
  Mrv2316 01072400032D          

 31 33  0  0  0  0            999 V2000
   -2.3047   -1.7831    0.0000 O   0  0  0  0  0  0  0  0  0  0  0  0
   -1.5903   -1.3706    0.0000 S   0  0  0  0  0  0  0  0  0  0  0  0
   -1.1778   -2.0850    0.0000 O   0  0  0  0  0  0  0  0  0  0  0  0
   -2.0028   -0.6561    0.0000 O   0  0  0  0  0  0  0  0  0  0  0  0
   -0.8758   -0.9581    0.0000 C   0  0  0  0  0  0  0  0  0  0  0  0
   -0.1613   -1.3706    0.0000 C   0  0  0  0  0  0  0  0  0  0  0  0
    0.5531   -0.9581    0.0000 C   0  0  0  0  0  0  0  0  0  0  0  0
    0.5531   -0.1331    0.0000 C   0  0  0  0  0  0  0  0  0  0  0  0
    1.2676    0.2794    0.0000 C   0  0  0  0  0  0  0  0  0  0  0  0
    1.9821   -0.1331    0.0000 C   0  0  0  0  0  0  0  0  0  0  0  0
    1.9821   -0.9581    0.0000 C   0  0  0  0  0  0  0  0  0  0  0  0
    1.2676   -1.3706    0.0000 C   0  0  0  0  0  0  0  0  0  0  0  0
    2.6966   -1.3706    0.0000 S   0  0  0  0  0  0  0  0  0  0  0  0
    3.4110   -1.7831    0.0000 O   0  0  0  0  0  0  0  0  0  0  0  0
    2.2841   -2.0850    0.0000 O   0  0  0  0  0  0  0  0  0  0  0  0
    3.1091   -0.6561    0.0000 O   0  0  0  0  0  0  0  0  0  0  0  0
    2.6966    0.2794    0.0000 N   0  0  0  0  0  0  0  0  0  0  0  0
    3.4110   -0.1331    0.0000 N   0  0  0  0  0  0  0  0  0  0  0  0
    4.1255    0.2794    0.0000 C   0  0  0  0  0  0  0  0  0  0  0  0
    4.8400   -0.1331    0.0000 C   0  0  0  0  0  0  0  0  0  0  0  0
    5.5544    0.2794    0.0000 C   0  0  0  0  0  0  0  0  0  0  0  0
    5.5544    1.1044    0.0000 C   0  0  0  0  0  0  0  0  0  0  0  0
    4.8400    1.5169    0.0000 C   0  0  0  0  0  0  0  0  0  0  0  0
    4.1255    1.1044    0.0000 C   0  0  0  0  0  0  0  0  0  0  0  0
    1.2676    1.1044    0.0000 O   0  0  0  0  0  0  0  0  0  0  0  0
   -0.1613    0.2794    0.0000 C   0  0  0  0  0  0  0  0  0  0  0  0
   -0.1613    1.1044    0.0000 N   0  0  0  0  0  0  0  0  0  0  0  0
   -0.8758    1.5169    0.0000 C   0  0  0  0  0  0  0  0  0  0  0  0
   -1.5903    1.1044    0.0000 C   0  0  0  0  0  0  0  0  0  0  0  0
   -0.8758    2.3419    0.0000 O   0  0  0  0  0  0  0  0  0  0  0  0
   -0.8758   -0.1331    0.0000 C   0  0  0  0  0  0  0  0  0  0  0  0
  1  2  1  0  0  0  0
  2  3  2  0  0  0  0
  2  4  2  0  0  0  0
  2  5  1  0  0  0  0
  6  5  2  0  0  0  0
  7  6  1  0  0  0  0
  7  8  1  0  0  0  0
  8  9  2  0  0  0  0
  9 10  1  0  0  0  0
 10 11  2  0  0  0  0
 11 12  1  0  0  0  0
 12  7  2  0  0  0  0
 11 13  1  0  0  0  0
 13 14  1  0  0  0  0
 13 15  2  0  0  0  0
 13 16  2  0  0  0  0
 17 10  1  4  0  0  0
 17 18  2  0  0  0  0
 18 19  1  0  0  0  0
 20 19  2  0  0  0  0
 21 20  1  0  0  0  0
 22 21  2  0  0  0  0
 23 22  1  0  0  0  0
 24 23  2  0  0  0  0
 19 24  1  0  0  0  0
  9 25  1  0  0  0  0
 26  8  1  0  0  0  0
 26 27  1  0  0  0  0
 27 28  1  0  0  0  0
 28 29  1  0  0  0  0
 28 30  2  0  0  0  0
 31 26  2  0  0  0  0
  5 31  1  0  0  0  0
M  END
> <RowID>
1526

> <Original_SMILES>
[Na+].[Na+].CC(=O)NC1=CC(=CC2C=C(C(N=NC3C=CC=CC=3)=C(O)C=21)S([O-])(=O)=O)S([O-])(=O)=O

> <Canonical_QSARr>
CC(=O)NC1=CC(=CC2=CC(=C(N=NC3C=CC=CC=3)C(O)=C12)S(O)(=O)=O)S(O)(=O)=O

> <InChI_Code_QSARr>
InChI=1S/C18H15N3O8S2/c1-10(22)19-14-9-13(30(24,25)26)7-11-8-15(31(27,28)29)17(18(23)16(11)14)21-20-12-5-3-2-4-6-12/h2-9,23H,1H3,(H,19,22)(H,24,25,26)(H,27,28,29)

> <InChI Key_QSARr>
RSNSKUBBVCGSND-UHFFFAOYSA-N

> <Salt_Solvent>
[Na+]

> <Salt_Solvent_ID>
110

> <Number of connected components>
3

$$$$
Molecule_1527
  Mrv2316 01072400032D          

 26 28  0  0  0  0            999 V2000
   -3.1052    1.2216    0.0000 C   0  0  0  0  0  0  0  0  0  0  0  0
   -3.1052    0.3966    0.0000 N   0  3  0  0  0  0  0  0  0  0  0  0
   -3.1052   -0.4284    0.0000 C   0  0  0  0  0  0  0  0  0  0  0  0
   -3.8197   -0.8409    0.0000 C   0  0  0  0  0  0  0  0  0  0  0  0
   -3.8197   -1.6659    0.0000 C   0  0  0  0  0  0  0  0  0  0  0  0
   -3.1052   -2.0784    0.0000 C   0  0  0  0  0  0  0  0  0  0  0  0
   -2.3907   -1.6659    0.0000 C   0  0  0  0  0  0  0  0  0  0  0  0
   -1.6763   -2.0784    0.0000 N   0  0  0  0  0  0  0  0  0  0  0  0
   -0.9618   -1.6659    0.0000 C   0  0  0  0  0  0  0  0  0  0  0  0
   -0.2473   -2.0784    0.0000 C   0  0  0  0  0  0  0  0  0  0  0  0
   -0.2473   -2.9034    0.0000 O   0  0  0  0  0  0  0  0  0  0  0  0
    0.4671   -1.6659    0.0000 C   0  0  0  0  0  0  0  0  0  0  0  0
    0.4671   -0.8409    0.0000 C   0  0  0  0  0  0  0  0  0  0  0  0
    1.1816   -0.4284    0.0000 C   0  0  0  0  0  0  0  0  0  0  0  0
    1.8961   -0.8409    0.0000 C   0  0  0  0  0  0  0  0  0  0  0  0
    1.8961   -1.6659    0.0000 C   0  0  0  0  0  0  0  0  0  0  0  0
    1.1816   -2.0784    0.0000 C   0  0  0  0  0  0  0  0  0  0  0  0
    1.1816   -2.9034    0.0000 N   0  0  0  0  0  0  0  0  0  0  0  0
    2.6106   -0.4284    0.0000 Br  0  0  0  0  0  0  0  0  0  0  0  0
    1.1816    0.3966    0.0000 O   0  0  0  0  0  0  0  0  0  0  0  0
   -0.2473   -0.4284    0.0000 C   0  0  0  0  0  0  0  0  0  0  0  0
   -0.2473    0.3966    0.0000 N   0  0  0  0  0  0  0  0  0  0  0  0
   -0.9618   -0.8409    0.0000 C   0  0  0  0  0  0  0  0  0  0  0  0
   -2.3907   -0.8409    0.0000 C   0  0  0  0  0  0  0  0  0  0  0  0
   -3.9302    0.3966    0.0000 C   0  0  0  0  0  0  0  0  0  0  0  0
   -2.2802    0.3966    0.0000 C   0  0  0  0  0  0  0  0  0  0  0  0
  1  2  1  0  0  0  0
  2  3  1  0  0  0  0
  4  3  1  0  0  0  0
  5  4  2  0  0  0  0
  6  5  1  0  0  0  0
  7  6  2  0  0  0  0
  7  8  1  0  0  0  0
  8  9  1  0  0  0  0
 10  9  2  0  0  0  0
 10 11  1  0  0  0  0
 12 10  1  0  0  0  0
 12 13  2  0  0  0  0
 13 14  1  0  0  0  0
 14 15  1  0  0  0  0
 15 16  2  0  0  0  0
 16 17  1  0  0  0  0
 17 12  1  0  0  0  0
 17 18  2  0  0  0  0
 15 19  1  0  0  0  0
 14 20  2  0  0  0  0
 21 13  1  0  0  0  0
 21 22  1  0  0  0  0
 23 21  2  0  0  0  0
  9 23  1  0  0  0  0
 24  7  1  0  0  0  0
  3 24  2  0  0  0  0
  2 25  1  0  0  0  0
  2 26  1  0  0  0  0
M  CHG  1   2   1
M  END
> <RowID>
1527

> <Original_SMILES>
[Cl-].C[N+](C)(C)C1=CC(=CC=C1)NC1C=C(N)C2C(=O)C(Br)=CC(=N)C=2C=1O

> <Canonical_QSARr>
C[N+](C)(C)C1=CC(=CC=C1)NC1C=C(N)C2C(=O)C(Br)=CC(=N)C=2C=1O

> <InChI_Code_QSARr>
InChI=1S/C19H19BrN4O2/c1-24(2,3)11-6-4-5-10(7-11)23-15-9-14(22)16-17(19(15)26)13(21)8-12(20)18(16)25/h4-9H,1-3H3,(H4-,21,22,23,25,26)/p+1

> <InChI Key_QSARr>
KYLAXXINCKZIBT-UHFFFAOYSA-O

> <Salt_Solvent>
[Cl-]

> <Salt_Solvent_ID>
170

> <Number of connected components>
2

$$$$
Molecule_1528
  Mrv2316 01072400032D          

  8  7  0  0  0  0            999 V2000
    1.0461   -2.2539    0.0000 N   0  0  0  0  0  0  0  0  0  0  0  0
    1.7605   -1.8414    0.0000 C   0  0  0  0  0  0  0  0  0  0  0  0
    2.4750   -1.4289    0.0000 C   0  0  0  0  0  0  0  0  0  0  0  0
    3.1895   -1.8414    0.0000 C   0  0  0  0  0  0  0  0  0  0  0  0
    3.9039   -1.4289    0.0000 C   0  0  0  0  0  0  0  0  0  0  0  0
    4.6184   -1.8414    0.0000 C   0  0  0  0  0  0  0  0  0  0  0  0
    5.3329   -1.4289    0.0000 C   0  0  0  0  0  0  0  0  0  0  0  0
    6.0474   -1.0164    0.0000 N   0  0  0  0  0  0  0  0  0  0  0  0
  1  2  3  0  0  0  0
  2  3  1  0  0  0  0
  3  4  1  0  0  0  0
  4  5  1  0  0  0  0
  5  6  1  0  0  0  0
  6  7  1  0  0  0  0
  7  8  3  0  0  0  0
M  END
> <RowID>
1528

> <Original_SMILES>
N#CCCCCC#N

> <Canonical_QSARr>
N#CCCCCC#N

> <InChI_Code_QSARr>
InChI=1S/C6H8N2/c7-5-3-1-2-4-6-8/h1-4H2

> <InChI Key_QSARr>
BTGRAWJCKBQKAO-UHFFFAOYSA-N

> <Salt_Solvent>


> <Salt_Solvent_ID>
0

> <Number of connected components>
1

$$$$
Molecule_1529
  Mrv2316 01072400032D          

 45 44  0  0  0  0            999 V2000
   20.8523   12.8628    0.0000 C   0  0  0  0  0  0  0  0  0  0  0  0
   21.5668   13.2753    0.0000 C   0  0  0  0  0  0  0  0  0  0  0  0
   21.5668   14.1003    0.0000 C   0  0  0  0  0  0  0  0  0  0  0  0
   22.2812   12.8628    0.0000 C   0  0  0  0  0  0  0  0  0  0  0  0
   22.9957   13.2753    0.0000 C   0  0  0  0  0  0  0  0  0  0  0  0
   23.7102   12.8628    0.0000 C   0  0  0  0  0  0  0  0  0  0  0  0
   24.4246   13.2753    0.0000 C   0  0  0  0  0  0  0  0  0  0  0  0
   25.1391   12.8628    0.0000 C   0  0  0  0  0  0  0  0  0  0  0  0
   25.8536   13.2753    0.0000 C   0  0  0  0  0  0  0  0  0  0  0  0
   26.5681   12.8628    0.0000 C   0  0  0  0  0  0  0  0  0  0  0  0
   27.2825   13.2753    0.0000 C   0  0  0  0  0  0  0  0  0  0  0  0
   27.9970   12.8628    0.0000 C   0  0  0  0  0  0  0  0  0  0  0  0
   28.7115   13.2753    0.0000 C   0  0  0  0  0  0  0  0  0  0  0  0
   29.4259   12.8628    0.0000 C   0  0  0  0  0  0  0  0  0  0  0  0
   30.1404   13.2753    0.0000 C   0  0  0  0  0  0  0  0  0  0  0  0
   30.8549   12.8628    0.0000 C   0  0  0  0  0  0  0  0  0  0  0  0
   31.5694   13.2753    0.0000 C   0  0  0  0  0  0  0  0  0  0  0  0
   32.2838   12.8628    0.0000 C   0  0  0  0  0  0  0  0  0  0  0  0
   32.9983   13.2753    0.0000 O   0  0  0  0  0  0  0  0  0  0  0  0
   33.7128   12.8628    0.0000 C   0  0  0  0  0  0  0  0  0  0  0  0
   33.7128   12.0378    0.0000 O   0  0  0  0  0  0  0  0  0  0  0  0
   34.4272   13.2753    0.0000 C   0  0  0  0  0  0  0  0  0  0  0  0
   34.4272   14.1003    0.0000 O   0  0  0  0  0  0  0  0  0  0  0  0
   35.1417   12.8628    0.0000 C   0  0  0  0  0  0  0  0  0  0  0  0
   35.8562   13.2753    0.0000 C   0  0  0  0  0  0  0  0  0  0  0  0
   35.8562   14.1003    0.0000 O   0  0  0  0  0  0  0  0  0  0  0  0
   36.5707   12.8628    0.0000 O   0  0  0  0  0  0  0  0  0  0  0  0
   37.2851   13.2753    0.0000 C   0  0  0  0  0  0  0  0  0  0  0  0
   37.9996   12.8628    0.0000 C   0  0  0  0  0  0  0  0  0  0  0  0
   38.7141   13.2753    0.0000 C   0  0  0  0  0  0  0  0  0  0  0  0
   39.4285   12.8628    0.0000 C   0  0  0  0  0  0  0  0  0  0  0  0
   40.1430   13.2753    0.0000 C   0  0  0  0  0  0  0  0  0  0  0  0
   40.8575   12.8628    0.0000 C   0  0  0  0  0  0  0  0  0  0  0  0
   41.5720   13.2753    0.0000 C   0  0  0  0  0  0  0  0  0  0  0  0
   42.2864   12.8628    0.0000 C   0  0  0  0  0  0  0  0  0  0  0  0
   43.0009   13.2753    0.0000 C   0  0  0  0  0  0  0  0  0  0  0  0
   43.7154   12.8628    0.0000 C   0  0  0  0  0  0  0  0  0  0  0  0
   44.4298   13.2753    0.0000 C   0  0  0  0  0  0  0  0  0  0  0  0
   45.1443   12.8628    0.0000 C   0  0  0  0  0  0  0  0  0  0  0  0
   45.8588   13.2753    0.0000 C   0  0  0  0  0  0  0  0  0  0  0  0
   46.5732   12.8628    0.0000 C   0  0  0  0  0  0  0  0  0  0  0  0
   47.2877   13.2753    0.0000 C   0  0  0  0  0  0  0  0  0  0  0  0
   48.0022   12.8628    0.0000 C   0  0  0  0  0  0  0  0  0  0  0  0
   48.7167   13.2753    0.0000 C   0  0  0  0  0  0  0  0  0  0  0  0
   48.0022   12.0378    0.0000 C   0  0  0  0  0  0  0  0  0  0  0  0
  1  2  1  0  0  0  0
  2  3  1  0  0  0  0
  2  4  1  0  0  0  0
  4  5  1  0  0  0  0
  5  6  1  0  0  0  0
  6  7  1  0  0  0  0
  7  8  1  0  0  0  0
  8  9  1  0  0  0  0
  9 10  1  0  0  0  0
 10 11  1  0  0  0  0
 11 12  1  0  0  0  0
 12 13  1  0  0  0  0
 13 14  1  0  0  0  0
 14 15  1  0  0  0  0
 15 16  1  0  0  0  0
 16 17  1  0  0  0  0
 17 18  1  0  0  0  0
 18 19  1  0  0  0  0
 19 20  1  0  0  0  0
 20 21  2  0  0  0  0
 20 22  1  0  0  0  0
 22 23  1  0  0  0  0
 22 24  1  0  0  0  0
 24 25  1  0  0  0  0
 25 26  2  0  0  0  0
 25 27  1  0  0  0  0
 27 28  1  0  0  0  0
 28 29  1  0  0  0  0
 29 30  1  0  0  0  0
 30 31  1  0  0  0  0
 31 32  1  0  0  0  0
 32 33  1  0  0  0  0
 33 34  1  0  0  0  0
 34 35  1  0  0  0  0
 35 36  1  0  0  0  0
 36 37  1  0  0  0  0
 37 38  1  0  0  0  0
 38 39  1  0  0  0  0
 39 40  1  0  0  0  0
 40 41  1  0  0  0  0
 41 42  1  0  0  0  0
 42 43  1  0  0  0  0
 43 44  1  0  0  0  0
 43 45  1  0  0  0  0
M  END
> <RowID>
1529

> <Original_SMILES>
CC(C)CCCCCCCCCCCCCCCOC(=O)C(O)CC(=O)OCCCCCCCCCCCCCCCC(C)C

> <Canonical_QSARr>
CC(C)CCCCCCCCCCCCCCCOC(=O)C(O)CC(=O)OCCCCCCCCCCCCCCCC(C)C

> <InChI_Code_QSARr>
InChI=1S/C40H78O5/c1-36(2)31-27-23-19-15-11-7-5-9-13-17-21-25-29-33-44-39(42)35-38(41)40(43)45-34-30-26-22-18-14-10-6-8-12-16-20-24-28-32-37(3)4/h36-38,41H,5-35H2,1-4H3

> <InChI Key_QSARr>
HGKOWIQVWAQWDS-UHFFFAOYSA-N

> <Salt_Solvent>


> <Salt_Solvent_ID>
0

> <Number of connected components>
1

$$$$
Molecule_1530
  Mrv2316 01072400032D          

 17 16  0  0  0  0            999 V2000
    2.9024   -5.2359    0.0000 O   0  0  0  0  0  0  0  0  0  0  0  0
    3.1724   -4.4563    0.0000 S   0  0  0  0  0  0  0  0  0  0  0  0
    3.9520   -4.7264    0.0000 O   0  0  0  0  0  0  0  0  0  0  0  0
    2.3929   -4.1863    0.0000 O   0  0  0  0  0  0  0  0  0  0  0  0
    3.4425   -3.6768    0.0000 O   0  0  0  0  0  0  0  0  0  0  0  0
    4.2526   -3.5209    0.0000 C   0  0  0  0  0  0  0  0  0  0  0  0
    4.5226   -2.7413    0.0000 C   0  0  0  0  0  0  0  0  0  0  0  0
    3.9825   -2.1177    0.0000 C   0  0  0  0  0  0  0  0  0  0  0  0
    4.2526   -1.3381    0.0000 C   0  0  0  0  0  0  0  0  0  0  0  0
    3.7125   -0.7145    0.0000 C   0  0  0  0  0  0  0  0  0  0  0  0
    3.9825    0.0651    0.0000 C   0  0  0  0  0  0  0  0  0  0  0  0
    5.3328   -2.5854    0.0000 C   0  0  0  0  0  0  0  0  0  0  0  0
    5.6028   -1.8059    0.0000 C   0  0  0  0  0  0  0  0  0  0  0  0
    6.4129   -1.6499    0.0000 C   0  0  0  0  0  0  0  0  0  0  0  0
    6.6830   -0.8704    0.0000 C   0  0  0  0  0  0  0  0  0  0  0  0
    7.4931   -0.7145    0.0000 C   0  0  0  0  0  0  0  0  0  0  0  0
    7.7632    0.0651    0.0000 C   0  0  0  0  0  0  0  0  0  0  0  0
  1  2  1  0  0  0  0
  2  3  2  0  0  0  0
  2  4  2  0  0  0  0
  2  5  1  0  0  0  0
  5  6  1  0  0  0  0
  6  7  1  0  0  0  0
  7  8  1  0  0  0  0
  8  9  1  0  0  0  0
  9 10  1  0  0  0  0
 10 11  1  0  0  0  0
  7 12  1  0  0  0  0
 12 13  1  0  0  0  0
 13 14  1  0  0  0  0
 14 15  1  0  0  0  0
 15 16  1  0  0  0  0
 16 17  1  0  0  0  0
M  END
> <RowID>
1530

> <Original_SMILES>
[Na+].CCCCC(COS([O-])(=O)=O)CCCCCC

> <Canonical_QSARr>
CCCCC(COS(O)(=O)=O)CCCCCC

> <InChI_Code_QSARr>
InChI=1S/C12H26O4S/c1-3-5-7-8-10-12(9-6-4-2)11-16-17(13,14)15/h12H,3-11H2,1-2H3,(H,13,14,15)

> <InChI Key_QSARr>
CYEJSYGBYQRTPJ-UHFFFAOYSA-N

> <Salt_Solvent>
[Na+]

> <Salt_Solvent_ID>
110

> <Number of connected components>
2

$$$$
Molecule_1531
  Mrv2316 01072400032D          

 45 49  0  0  0  0            999 V2000
   -3.3342   -2.5300    0.0000 O   0  0  0  0  0  0  0  0  0  0  0  0
   -2.6197   -2.1175    0.0000 S   0  0  0  0  0  0  0  0  0  0  0  0
   -3.0322   -1.4030    0.0000 O   0  0  0  0  0  0  0  0  0  0  0  0
   -2.2072   -2.8320    0.0000 O   0  0  0  0  0  0  0  0  0  0  0  0
   -1.9052   -1.7050    0.0000 C   0  0  0  0  0  0  0  0  0  0  0  0
   -1.1908   -2.1175    0.0000 C   0  0  0  0  0  0  0  0  0  0  0  0
   -0.4763   -1.7050    0.0000 C   0  0  0  0  0  0  0  0  0  0  0  0
   -0.4763   -0.8800    0.0000 C   0  0  0  0  0  0  0  0  0  0  0  0
    0.2382   -0.4675    0.0000 C   0  0  0  0  0  0  0  0  0  0  0  0
    0.9526   -0.8800    0.0000 C   0  0  0  0  0  0  0  0  0  0  0  0
    0.9526   -1.7050    0.0000 C   0  0  0  0  0  0  0  0  0  0  0  0
    0.2382   -2.1175    0.0000 C   0  0  0  0  0  0  0  0  0  0  0  0
    1.6671   -2.1175    0.0000 N   0  0  0  0  0  0  0  0  0  0  0  0
    1.6671   -2.9425    0.0000 C   0  0  0  0  0  0  0  0  0  0  0  0
    0.9526   -3.3550    0.0000 N   0  0  0  0  0  0  0  0  0  0  0  0
    0.9526   -4.1800    0.0000 C   0  0  0  0  0  0  0  0  0  0  0  0
    0.2382   -4.5925    0.0000 Cl  0  0  0  0  0  0  0  0  0  0  0  0
    1.6671   -4.5925    0.0000 N   0  0  0  0  0  0  0  0  0  0  0  0
    2.3816   -4.1800    0.0000 C   0  0  0  0  0  0  0  0  0  0  0  0
    3.0960   -4.5925    0.0000 N   0  0  0  0  0  0  0  0  0  0  0  0
    3.0960   -5.4175    0.0000 C   0  0  0  0  0  0  0  0  0  0  0  0
    2.3816   -5.8300    0.0000 C   0  0  0  0  0  0  0  0  0  0  0  0
    2.3816   -6.6550    0.0000 C   0  0  0  0  0  0  0  0  0  0  0  0
    3.0960   -7.0675    0.0000 C   0  0  0  0  0  0  0  0  0  0  0  0
    3.8105   -6.6550    0.0000 C   0  0  0  0  0  0  0  0  0  0  0  0
    4.5250   -7.0675    0.0000 S   0  0  0  0  0  0  0  0  0  0  0  0
    5.2395   -7.4800    0.0000 O   0  0  0  0  0  0  0  0  0  0  0  0
    4.9375   -6.3530    0.0000 O   0  0  0  0  0  0  0  0  0  0  0  0
    4.1125   -7.7820    0.0000 O   0  0  0  0  0  0  0  0  0  0  0  0
    3.8105   -5.8300    0.0000 C   0  0  0  0  0  0  0  0  0  0  0  0
    2.3816   -3.3550    0.0000 N   0  0  0  0  0  0  0  0  0  0  0  0
   -1.1908   -0.4675    0.0000 C   0  0  0  0  0  0  0  0  0  0  0  0
   -1.1908    0.3575    0.0000 O   0  0  0  0  0  0  0  0  0  0  0  0
   -1.9052   -0.8800    0.0000 C   0  0  0  0  0  0  0  0  0  0  0  0
   -2.6197   -0.4675    0.0000 N   0  0  0  0  0  0  0  0  0  0  0  0
   -2.6197    0.3575    0.0000 N   0  0  0  0  0  0  0  0  0  0  0  0
   -3.3342    0.7700    0.0000 C   0  0  0  0  0  0  0  0  0  0  0  0
   -3.3342    1.5950    0.0000 C   0  0  0  0  0  0  0  0  0  0  0  0
   -2.6197    2.0075    0.0000 C   0  0  0  0  0  0  0  0  0  0  0  0
   -2.6197    2.8325    0.0000 O   0  0  0  0  0  0  0  0  0  0  0  0
   -1.9052    1.5950    0.0000 O   0  0  0  0  0  0  0  0  0  0  0  0
   -4.0487    2.0075    0.0000 C   0  0  0  0  0  0  0  0  0  0  0  0
   -4.7631    1.5950    0.0000 C   0  0  0  0  0  0  0  0  0  0  0  0
   -4.7631    0.7700    0.0000 C   0  0  0  0  0  0  0  0  0  0  0  0
   -4.0487    0.3575    0.0000 C   0  0  0  0  0  0  0  0  0  0  0  0
  1  2  1  0  0  0  0
  2  3  2  0  0  0  0
  2  4  2  0  0  0  0
  2  5  1  0  0  0  0
  6  5  2  0  0  0  0
  7  6  1  0  0  0  0
  7  8  2  0  0  0  0
  8  9  1  0  0  0  0
  9 10  2  0  0  0  0
 10 11  1  0  0  0  0
 11 12  2  0  0  0  0
 12  7  1  0  0  0  0
 11 13  1  0  0  0  0
 13 14  1  0  0  0  0
 15 14  2  0  0  0  0
 16 15  1  0  0  0  0
 16 17  1  0  0  0  0
 18 16  2  0  0  0  0
 19 18  1  0  0  0  0
 19 20  1  0  0  0  0
 20 21  1  0  0  0  0
 22 21  2  0  0  0  0
 23 22  1  0  0  0  0
 24 23  2  0  0  0  0
 25 24  1  0  0  0  0
 25 26  1  0  0  0  0
 26 27  1  0  0  0  0
 26 28  2  0  0  0  0
 26 29  2  0  0  0  0
 30 25  2  0  0  0  0
 21 30  1  0  0  0  0
 31 19  2  0  0  0  0
 14 31  1  0  0  0  0
 32  8  1  0  0  0  0
 32 33  1  0  0  0  0
 34 32  2  0  0  0  0
  5 34  1  0  0  0  0
 35 34  1  4  0  0  0
 35 36  2  0  0  0  0
 36 37  1  0  0  0  0
 38 37  2  0  0  0  0
 38 39  1  0  0  0  0
 39 40  1  0  0  0  0
 39 41  2  0  0  0  0
 42 38  1  0  0  0  0
 43 42  2  0  0  0  0
 44 43  1  0  0  0  0
 45 44  2  0  0  0  0
 37 45  1  0  0  0  0
M  END
> <RowID>
1531

> <Original_SMILES>
[H+].[Na+].[Na+].[Na+].[Na+].[Cr+3].[O-]S(=O)(=O)C1C=C2C=C(C=CC2=C([O-])C=1N=NC1=CC=CC=C1C([O-])=O)NC1=NC(Cl)=NC(NC2=CC(=CC=C2)S([O-])(=O)=O)=N1.[O-]S(=O)(=O)C1C=C2C=C(C=CC2=C([O-])C=1N=NC1=CC=CC=C1C([O-])=O)NC1=NC(Cl)=NC(NC2=CC(=CC=C2)S([O-])(=O)=O)=N1

> <Canonical_QSARr>
OC(=O)C1C=CC=CC=1N=NC1C(=CC2C=C(C=CC=2C=1O)NC1N=C(NC2C=C(C=CC=2)S(O)(=O)=O)N=C(Cl)N=1)S(O)(=O)=O

> <InChI_Code_QSARr>
InChI=1S/C26H18ClN7O9S2/c27-24-30-25(28-14-4-3-5-16(12-14)44(38,39)40)32-26(31-24)29-15-8-9-17-13(10-15)11-20(45(41,42)43)21(22(17)35)34-33-19-7-2-1-6-18(19)23(36)37/h1-12,35H,(H,36,37)(H,38,39,40)(H,41,42,43)(H2,28,29,30,31,32)

> <InChI Key_QSARr>
YURLHDBKNPATPW-UHFFFAOYSA-N

> <Salt_Solvent>
[H+].[Na+].[Cr+3]

> <Salt_Solvent_ID>
60

> <Number of connected components>
8

$$$$
Molecule_1532
  Mrv2316 01072400032D          

 28 32  0  0  0  0            999 V2000
   -1.4289   -4.1250    0.0000 C   0  0  0  0  0  0  0  0  0  0  0  0
   -0.7145   -3.7125    0.0000 C   0  0  0  0  0  0  0  0  0  0  0  0
    0.0000   -4.1250    0.0000 C   0  0  0  0  0  0  0  0  0  0  0  0
    0.7145   -3.7125    0.0000 C   0  0  0  0  0  0  0  0  0  0  0  0
    0.7145   -2.8875    0.0000 C   0  0  0  0  0  0  0  0  0  0  0  0
    1.4289   -2.4750    0.0000 N   0  0  0  0  0  0  0  0  0  0  0  0
    1.4289   -1.6500    0.0000 C   0  0  0  0  0  0  0  0  0  0  0  0
    0.7145   -1.2375    0.0000 C   0  0  0  0  0  0  0  0  0  0  0  0
    0.7145   -0.4125    0.0000 C   0  0  0  0  0  0  0  0  0  0  0  0
    1.4289    0.0000    0.0000 C   0  0  0  0  0  0  0  0  0  0  0  0
    2.1434   -0.4125    0.0000 C   0  0  0  0  0  0  0  0  0  0  0  0
    2.8579    0.0000    0.0000 C   0  0  0  0  0  0  0  0  0  0  0  0
    2.8579    0.8250    0.0000 C   0  0  0  0  0  0  0  0  0  0  0  0
    2.1434    1.2375    0.0000 C   0  0  0  0  0  0  0  0  0  0  0  0
    2.1434    2.0625    0.0000 O   0  0  0  0  0  0  0  0  0  0  0  0
    1.4289    0.8250    0.0000 N   0  0  0  0  0  0  0  0  0  0  0  0
    0.7145    1.2375    0.0000 C   0  0  0  0  0  0  0  0  0  0  0  0
    3.5724   -0.4125    0.0000 C   0  0  0  0  0  0  0  0  0  0  0  0
    4.2868    0.0000    0.0000 C   0  0  0  0  0  0  0  0  0  0  0  0
    5.0013   -0.4125    0.0000 C   0  0  0  0  0  0  0  0  0  0  0  0
    5.0013   -1.2375    0.0000 C   0  0  0  0  0  0  0  0  0  0  0  0
    4.2868   -1.6500    0.0000 C   0  0  0  0  0  0  0  0  0  0  0  0
    3.5724   -1.2375    0.0000 C   0  0  0  0  0  0  0  0  0  0  0  0
    2.8579   -1.6500    0.0000 C   0  0  0  0  0  0  0  0  0  0  0  0
    2.8579   -2.4750    0.0000 O   0  0  0  0  0  0  0  0  0  0  0  0
    2.1434   -1.2375    0.0000 C   0  0  0  0  0  0  0  0  0  0  0  0
    0.0000   -2.4750    0.0000 C   0  0  0  0  0  0  0  0  0  0  0  0
   -0.7145   -2.8875    0.0000 C   0  0  0  0  0  0  0  0  0  0  0  0
  1  2  1  0  0  0  0
  3  2  1  0  0  0  0
  4  3  2  0  0  0  0
  5  4  1  0  0  0  0
  5  6  1  0  0  0  0
  6  7  1  0  0  0  0
  8  7  2  0  0  0  0
  9  8  1  0  0  0  0
 10  9  2  0  0  0  0
 10 11  1  0  0  0  0
 11 12  1  0  0  0  0
 12 13  2  0  0  0  0
 13 14  1  0  0  0  0
 14 15  2  0  0  0  0
 14 16  1  0  0  0  0
 16 10  1  0  0  0  0
 16 17  1  0  0  0  0
 12 18  1  0  0  0  0
 19 18  1  0  0  0  0
 20 19  2  0  0  0  0
 21 20  1  0  0  0  0
 22 21  2  0  0  0  0
 23 22  1  0  0  0  0
 18 23  2  0  0  0  0
 23 24  1  0  0  0  0
 24 25  2  0  0  0  0
 24 26  1  0  0  0  0
  7 26  1  0  0  0  0
 26 11  2  0  0  0  0
 27  5  2  0  0  0  0
 28 27  1  0  0  0  0
  2 28  2  0  0  0  0
M  END
> <RowID>
1532

> <Original_SMILES>
CC1C=CC(=CC=1)NC1=CC=C2C3=C1C(=O)C1C=CC=CC=1C3=CC(=O)N2C

> <Canonical_QSARr>
CC1C=CC(=CC=1)NC1=CC=C2C3=C1C(=O)C1C=CC=CC=1C3=CC(=O)N2C

> <InChI_Code_QSARr>
InChI=1S/C24H18N2O2/c1-14-7-9-15(10-8-14)25-19-11-12-20-22-18(13-21(27)26(20)2)16-5-3-4-6-17(16)24(28)23(19)22/h3-13,25H,1-2H3

> <InChI Key_QSARr>
VJUKWPOWHJITTP-UHFFFAOYSA-N

> <Salt_Solvent>


> <Salt_Solvent_ID>
0

> <Number of connected components>
1

$$$$
Molecule_1534
  Mrv2316 01072400032D          

 12 11  0  0  0  0            999 V2000
    2.9980    2.5559    0.0000 C   0  0  0  0  0  0  0  0  0  0  0  0
    3.7125    2.1434    0.0000 C   0  0  0  0  0  0  0  0  0  0  0  0
    3.7125    1.3184    0.0000 O   0  0  0  0  0  0  0  0  0  0  0  0
    4.4270    2.5559    0.0000 O   0  0  0  0  0  0  0  0  0  0  0  0
    5.1414    2.1434    0.0000 C   0  0  0  0  0  0  0  0  0  0  0  0
    5.1414    1.3184    0.0000 C   0  0  0  0  0  0  0  0  0  0  0  0
    5.8559    2.5559    0.0000 C   0  0  0  0  0  0  0  0  0  0  0  0
    6.5704    2.1434    0.0000 C   0  0  0  0  0  0  0  0  0  0  0  0
    7.2848    2.5559    0.0000 O   0  0  0  0  0  0  0  0  0  0  0  0
    7.9993    2.1434    0.0000 C   0  0  0  0  0  0  0  0  0  0  0  0
    8.7138    2.5559    0.0000 C   0  0  0  0  0  0  0  0  0  0  0  0
    7.9993    1.3184    0.0000 O   0  0  0  0  0  0  0  0  0  0  0  0
  1  2  1  0  0  0  0
  2  3  2  0  0  0  0
  2  4  1  0  0  0  0
  4  5  1  0  0  0  0
  5  6  1  0  0  0  0
  5  7  1  0  0  0  0
  7  8  1  0  0  0  0
  8  9  1  0  0  0  0
  9 10  1  0  0  0  0
 10 11  1  0  0  0  0
 10 12  2  0  0  0  0
M  END
> <RowID>
1534

> <Original_SMILES>
CC(=O)OC(C)CCOC(C)=O

> <Canonical_QSARr>
CC(=O)OC(C)CCOC(C)=O

> <InChI_Code_QSARr>
InChI=1S/C8H14O4/c1-6(12-8(3)10)4-5-11-7(2)9/h6H,4-5H2,1-3H3

> <InChI Key_QSARr>
MPAGVACEWQNVQO-UHFFFAOYSA-N

> <Salt_Solvent>


> <Salt_Solvent_ID>
0

> <Number of connected components>
1

$$$$
Molecule_1535
  Mrv2316 01072400032D          

 56 62  0  0  0  0            999 V2000
    5.0013    1.2375    0.0000 C   0  0  0  0  0  0  0  0  0  0  0  0
    5.0013    2.0625    0.0000 C   0  0  0  0  0  0  0  0  0  0  0  0
    5.7158    2.4750    0.0000 C   0  0  0  0  0  0  0  0  0  0  0  0
    6.4302    2.0625    0.0000 S   0  0  0  0  0  0  0  0  0  0  0  0
    6.8427    2.7770    0.0000 O   0  0  0  0  0  0  0  0  0  0  0  0
    6.0177    1.3480    0.0000 O   0  0  0  0  0  0  0  0  0  0  0  0
    7.1447    1.6500    0.0000 N   0  0  0  0  0  0  0  0  0  0  0  0
    7.8592    2.0625    0.0000 C   0  0  0  0  0  0  0  0  0  0  0  0
    8.5737    1.6500    0.0000 C   0  0  0  0  0  0  0  0  0  0  0  0
    9.2881    2.0625    0.0000 C   0  0  0  0  0  0  0  0  0  0  0  0
    9.2881    2.8875    0.0000 C   0  0  0  0  0  0  0  0  0  0  0  0
    8.5737    3.3000    0.0000 C   0  0  0  0  0  0  0  0  0  0  0  0
    7.8592    2.8875    0.0000 C   0  0  0  0  0  0  0  0  0  0  0  0
    5.7158    3.3000    0.0000 C   0  0  0  0  0  0  0  0  0  0  0  0
    6.4302    3.7125    0.0000 C   0  0  0  0  0  0  0  0  0  0  0  0
    5.0013    3.7125    0.0000 C   0  0  0  0  0  0  0  0  0  0  0  0
    4.2868    3.3000    0.0000 C   0  0  0  0  0  0  0  0  0  0  0  0
    3.5724    3.7125    0.0000 C   0  0  0  0  0  0  0  0  0  0  0  0
    4.2868    2.4750    0.0000 C   0  0  0  0  0  0  0  0  0  0  0  0
    3.5724    2.0625    0.0000 N   0  0  0  0  0  0  0  0  0  0  0  0
    3.5724    1.2375    0.0000 C   0  0  0  0  0  0  0  0  0  0  0  0
    4.2868    0.8250    0.0000 C   0  0  0  0  0  0  0  0  0  0  0  0
    4.2868   -0.0000    0.0000 C   0  0  0  0  0  0  0  0  0  0  0  0
    3.5724   -0.4125    0.0000 C   0  0  0  0  0  0  0  0  0  0  0  0
    3.5724   -1.2375    0.0000 N   0  0  0  0  0  0  0  0  0  0  0  0
    4.2868   -1.6500    0.0000 C   0  0  0  0  0  0  0  0  0  0  0  0
    5.0013   -1.2375    0.0000 C   0  0  0  0  0  0  0  0  0  0  0  0
    5.0013   -0.4125    0.0000 C   0  0  0  0  0  0  0  0  0  0  0  0
    5.7158   -1.6500    0.0000 C   0  0  0  0  0  0  0  0  0  0  0  0
    6.4302   -1.2375    0.0000 S   0  0  0  0  0  0  0  0  0  0  0  0
    6.8427   -1.9520    0.0000 O   0  0  0  0  0  0  0  0  0  0  0  0
    6.0177   -0.5230    0.0000 O   0  0  0  0  0  0  0  0  0  0  0  0
    7.1447   -0.8250    0.0000 N   0  0  0  0  0  0  0  0  0  0  0  0
    7.8592   -1.2375    0.0000 C   0  0  0  0  0  0  0  0  0  0  0  0
    7.8592   -2.0625    0.0000 C   0  0  0  0  0  0  0  0  0  0  0  0
    8.5737   -2.4750    0.0000 C   0  0  0  0  0  0  0  0  0  0  0  0
    9.2881   -2.0625    0.0000 C   0  0  0  0  0  0  0  0  0  0  0  0
    9.2881   -1.2375    0.0000 C   0  0  0  0  0  0  0  0  0  0  0  0
    8.5737   -0.8250    0.0000 C   0  0  0  0  0  0  0  0  0  0  0  0
    5.7158   -2.4750    0.0000 C   0  0  0  0  0  0  0  0  0  0  0  0
    6.4302   -2.8875    0.0000 C   0  0  0  0  0  0  0  0  0  0  0  0
    5.0013   -2.8875    0.0000 C   0  0  0  0  0  0  0  0  0  0  0  0
    4.2868   -2.4750    0.0000 C   0  0  0  0  0  0  0  0  0  0  0  0
    3.5724   -2.8875    0.0000 C   0  0  0  0  0  0  0  0  0  0  0  0
    2.8579   -0.0000    0.0000 C   0  0  0  0  0  0  0  0  0  0  0  0
    2.8579    0.8250    0.0000 C   0  0  0  0  0  0  0  0  0  0  0  0
    2.1434    1.2375    0.0000 C   0  0  0  0  0  0  0  0  0  0  0  0
    2.1434    2.0625    0.0000 O   0  0  0  0  0  0  0  0  0  0  0  0
    1.4289    0.8250    0.0000 C   0  0  0  0  0  0  0  0  0  0  0  0
    0.7145    1.2375    0.0000 C   0  0  0  0  0  0  0  0  0  0  0  0
    0.0000    0.8250    0.0000 C   0  0  0  0  0  0  0  0  0  0  0  0
    0.0000   -0.0000    0.0000 C   0  0  0  0  0  0  0  0  0  0  0  0
    0.7145   -0.4125    0.0000 C   0  0  0  0  0  0  0  0  0  0  0  0
    1.4289   -0.0000    0.0000 C   0  0  0  0  0  0  0  0  0  0  0  0
    2.1434   -0.4125    0.0000 C   0  0  0  0  0  0  0  0  0  0  0  0
    2.1434   -1.2375    0.0000 O   0  0  0  0  0  0  0  0  0  0  0  0
  1  2  1  0  0  0  0
  3  2  1  0  0  0  0
  3  4  1  0  0  0  0
  4  5  2  0  0  0  0
  4  6  2  0  0  0  0
  4  7  1  0  0  0  0
  7  8  1  0  0  0  0
  9  8  1  0  0  0  0
 10  9  1  0  0  0  0
 11 10  1  0  0  0  0
 12 11  1  0  0  0  0
 13 12  1  0  0  0  0
  8 13  1  0  0  0  0
 14  3  2  0  0  0  0
 14 15  1  0  0  0  0
 16 14  1  0  0  0  0
 17 16  2  0  0  0  0
 17 18  1  0  0  0  0
 19 17  1  0  0  0  0
  2 19  2  0  0  0  0
 19 20  1  0  0  0  0
 20 21  1  0  0  0  0
 22 21  1  0  0  0  0
 23 22  2  0  0  0  0
 24 23  1  0  0  0  0
 24 25  1  0  0  0  0
 25 26  1  0  0  0  0
 27 26  1  0  0  0  0
 27 28  1  0  0  0  0
 29 27  2  0  0  0  0
 29 30  1  0  0  0  0
 30 31  2  0  0  0  0
 30 32  2  0  0  0  0
 30 33  1  0  0  0  0
 33 34  1  0  0  0  0
 35 34  1  0  0  0  0
 36 35  1  0  0  0  0
 37 36  1  0  0  0  0
 38 37  1  0  0  0  0
 39 38  1  0  0  0  0
 34 39  1  0  0  0  0
 40 29  1  0  0  0  0
 40 41  1  0  0  0  0
 42 40  2  0  0  0  0
 43 42  1  0  0  0  0
 26 43  2  0  0  0  0
 43 44  1  0  0  0  0
 45 24  2  0  0  0  0
 45 46  1  0  0  0  0
 21 46  2  0  0  0  0
 46 47  1  0  0  0  0
 47 48  2  0  0  0  0
 47 49  1  0  0  0  0
 50 49  1  0  0  0  0
 51 50  2  0  0  0  0
 52 51  1  0  0  0  0
 53 52  2  0  0  0  0
 54 53  1  0  0  0  0
 49 54  2  0  0  0  0
 54 55  1  0  0  0  0
 55 45  1  0  0  0  0
 55 56  2  0  0  0  0
M  END
> <RowID>
1535

> <Original_SMILES>
CC1C(=C(C)C=C(C)C=1NC1C=CC(NC2C(C)=C(C(C)=CC=2C)S(=O)(=O)NC2CCCCC2)=C2C=1C(=O)C1C=CC=CC=1C2=O)S(=O)(=O)NC1CCCCC1

> <Canonical_QSARr>
CC1C(=C(C)C=C(C)C=1NC1C=CC(NC2C(C)=C(C(C)=CC=2C)S(=O)(=O)NC2CCCCC2)=C2C=1C(=O)C1C=CC=CC=1C2=O)S(=O)(=O)NC1CCCCC1

> <InChI_Code_QSARr>
InChI=1S/C44H52N4O6S2/c1-25-23-27(3)43(55(51,52)47-31-15-9-7-10-16-31)29(5)39(25)45-35-21-22-36(38-37(35)41(49)33-19-13-14-20-34(33)42(38)50)46-40-26(2)24-28(4)44(30(40)6)56(53,54)48-32-17-11-8-12-18-32/h13-14,19-24,31-32,45-48H,7-12,15-18H2,1-6H3

> <InChI Key_QSARr>
AYYCRXDSCYPSRP-UHFFFAOYSA-N

> <Salt_Solvent>


> <Salt_Solvent_ID>
0

> <Number of connected components>
1

$$$$
Molecule_1536
  Mrv2316 01072400032D          

 28 30  0  0  0  0            999 V2000
    2.1434   -5.8339    0.0000 C   0  0  0  0  0  0  0  0  0  0  0  0
    1.4290   -5.4214    0.0000 C   0  0  0  0  0  0  0  0  0  0  0  0
    0.7145   -5.8339    0.0000 O   0  0  0  0  0  0  0  0  0  0  0  0
    1.4290   -4.5964    0.0000 C   0  0  0  0  0  0  0  0  0  0  0  0
    0.7145   -4.1839    0.0000 N   0  0  0  0  0  0  0  0  0  0  0  0
    0.7145   -3.3589    0.0000 N   0  0  0  0  0  0  0  0  0  0  0  0
    0.0000   -2.9464    0.0000 C   0  0  0  0  0  0  0  0  0  0  0  0
    0.0000   -2.1214    0.0000 C   0  0  0  0  0  0  0  0  0  0  0  0
   -0.7145   -1.7089    0.0000 C   0  0  0  0  0  0  0  0  0  0  0  0
   -1.4289   -2.1214    0.0000 C   0  0  0  0  0  0  0  0  0  0  0  0
   -2.1434   -1.7089    0.0000 N   0  3  0  0  0  0  0  0  0  0  0  0
   -2.8579   -2.1214    0.0000 O   0  5  0  0  0  0  0  0  0  0  0  0
   -2.1434   -0.8839    0.0000 O   0  0  0  0  0  0  0  0  0  0  0  0
   -1.4289   -2.9464    0.0000 C   0  0  0  0  0  0  0  0  0  0  0  0
   -0.7145   -3.3589    0.0000 C   0  0  0  0  0  0  0  0  0  0  0  0
    2.1434   -4.1839    0.0000 C   0  0  0  0  0  0  0  0  0  0  0  0
    2.1434   -3.3589    0.0000 O   0  0  0  0  0  0  0  0  0  0  0  0
    2.8579   -4.5964    0.0000 N   0  0  0  0  0  0  0  0  0  0  0  0
    3.5724   -4.1839    0.0000 C   0  0  0  0  0  0  0  0  0  0  0  0
    4.2868   -4.5964    0.0000 C   0  0  0  0  0  0  0  0  0  0  0  0
    5.0013   -4.1839    0.0000 C   0  0  0  0  0  0  0  0  0  0  0  0
    5.7859   -4.4389    0.0000 N   0  0  0  0  0  0  0  0  0  0  0  0
    6.2709   -3.7714    0.0000 C   0  0  0  0  0  0  0  0  0  0  0  0
    7.0959   -3.7714    0.0000 O   0  0  0  0  0  0  0  0  0  0  0  0
    5.7859   -3.1040    0.0000 N   0  0  0  0  0  0  0  0  0  0  0  0
    5.0013   -3.3589    0.0000 C   0  0  0  0  0  0  0  0  0  0  0  0
    4.2868   -2.9464    0.0000 C   0  0  0  0  0  0  0  0  0  0  0  0
    3.5724   -3.3589    0.0000 C   0  0  0  0  0  0  0  0  0  0  0  0
  1  2  1  0  0  0  0
  2  3  2  0  0  0  0
  2  4  1  0  0  0  0
  5  4  1  4  0  0  0
  5  6  2  0  0  0  0
  6  7  1  0  0  0  0
  8  7  1  0  0  0  0
  9  8  2  0  0  0  0
 10  9  1  0  0  0  0
 10 11  1  0  0  0  0
 11 12  1  0  0  0  0
 11 13  2  0  0  0  0
 14 10  2  0  0  0  0
 15 14  1  0  0  0  0
  7 15  2  0  0  0  0
  4 16  1  0  0  0  0
 16 17  2  0  0  0  0
 16 18  1  0  0  0  0
 18 19  1  0  0  0  0
 20 19  2  0  0  0  0
 21 20  1  0  0  0  0
 21 22  1  0  0  0  0
 22 23  1  0  0  0  0
 23 24  2  0  0  0  0
 23 25  1  0  0  0  0
 25 26  1  0  0  0  0
 26 21  2  0  0  0  0
 27 26  1  0  0  0  0
 28 27  2  0  0  0  0
 19 28  1  0  0  0  0
M  CHG  2  11   1  12  -1
M  END
> <RowID>
1536

> <Original_SMILES>
CC(=O)C(N=NC1C=CC(=CC=1)[N+]([O-])=O)C(=O)NC1=CC2NC(=O)NC=2C=C1

> <Canonical_QSARr>
CC(=O)C(N=NC1C=CC(=CC=1)[N+]([O-])=O)C(=O)NC1=CC2NC(=O)NC=2C=C1

> <InChI_Code_QSARr>
InChI=1S/C17H14N6O5/c1-9(24)15(22-21-10-2-5-12(6-3-10)23(27)28)16(25)18-11-4-7-13-14(8-11)20-17(26)19-13/h2-8,15H,1H3,(H,18,25)(H2,19,20,26)

> <InChI Key_QSARr>
HXXOOSWHCMYQQV-UHFFFAOYSA-N

> <Salt_Solvent>


> <Salt_Solvent_ID>
0

> <Number of connected components>
1

$$$$
Molecule_1538
  Mrv2316 01072400032D          

  2  1  0  0  0  0            999 V2000
    0.8250    0.0000    0.0000 C   0  5  0  0  0  0  0  0  0  0  0  0
    0.0000    0.0000    0.0000 O   0  3  0  0  0  0  0  0  0  0  0  0
  1  2  3  0  0  0  0
M  CHG  2   1  -1   2   1
M  END
> <RowID>
1538

> <Original_SMILES>
[Fe].[C-]#[O+].[C-]#[O+].[C-]#[O+].[C-]#[O+].[C-]#[O+]

> <Canonical_QSARr>
[C-]#[O+]

> <InChI_Code_QSARr>
InChI=1S/CO/c1-2

> <InChI Key_QSARr>
UGFAIRIUMAVXCW-UHFFFAOYSA-N

> <Salt_Solvent>
[Fe]

> <Salt_Solvent_ID>
260

> <Number of connected components>
6

$$$$
Molecule_1539
  Mrv2316 01072400032D          

 10 10  0  0  0  0            999 V2000
   -0.3572    2.2688    0.0000 N   0  0  0  0  0  0  0  0  0  0  0  0
   -0.3572    1.4438    0.0000 C   0  0  0  0  0  0  0  0  0  0  0  0
   -1.0717    1.0313    0.0000 O   0  0  0  0  0  0  0  0  0  0  0  0
    0.3572    1.0313    0.0000 C   0  0  0  0  0  0  0  0  0  0  0  0
    0.3572    0.2062    0.0000 C   0  0  0  0  0  0  0  0  0  0  0  0
    1.0717   -0.2063    0.0000 C   0  0  0  0  0  0  0  0  0  0  0  0
    1.7862    0.2062    0.0000 C   0  0  0  0  0  0  0  0  0  0  0  0
    1.7862    1.0312    0.0000 C   0  0  0  0  0  0  0  0  0  0  0  0
    1.0717    1.4437    0.0000 C   0  0  0  0  0  0  0  0  0  0  0  0
    1.0717    2.2687    0.0000 O   0  0  0  0  0  0  0  0  0  0  0  0
  1  2  1  0  0  0  0
  2  3  2  0  0  0  0
  2  4  1  0  0  0  0
  5  4  2  0  0  0  0
  6  5  1  0  0  0  0
  7  6  2  0  0  0  0
  8  7  1  0  0  0  0
  9  8  2  0  0  0  0
  4  9  1  0  0  0  0
  9 10  1  0  0  0  0
M  END
> <RowID>
1539

> <Original_SMILES>
NC(=O)C1=CC=CC=C1O

> <Canonical_QSARr>
NC(=O)C1=CC=CC=C1O

> <InChI_Code_QSARr>
InChI=1S/C7H7NO2/c8-7(10)5-3-1-2-4-6(5)9/h1-4,9H,(H2,8,10)

> <InChI Key_QSARr>
SKZKKFZAGNVIMN-UHFFFAOYSA-N

> <Salt_Solvent>


> <Salt_Solvent_ID>
0

> <Number of connected components>
1

$$$$
Molecule_1540
  Mrv2316 01072400032D          

 14 16  0  0  0  0            999 V2000
    2.1434   -1.2375    0.0000 C   0  0  0  0  0  0  0  0  0  0  0  0
    1.4289   -1.6500    0.0000 C   0  0  0  0  0  0  0  0  0  0  0  0
    1.4289   -2.4750    0.0000 C   0  0  0  0  0  0  0  0  0  0  0  0
    2.1434   -2.8875    0.0000 C   0  0  0  0  0  0  0  0  0  0  0  0
    2.8579   -2.4750    0.0000 C   0  0  0  0  0  0  0  0  0  0  0  0
    3.5724   -2.8875    0.0000 N   0  0  0  0  0  0  0  0  0  0  0  0
    4.2868   -2.4750    0.0000 C   0  0  0  0  0  0  0  0  0  0  0  0
    5.0013   -2.8875    0.0000 C   0  0  0  0  0  0  0  0  0  0  0  0
    5.7158   -2.4750    0.0000 C   0  0  0  0  0  0  0  0  0  0  0  0
    5.7158   -1.6500    0.0000 C   0  0  0  0  0  0  0  0  0  0  0  0
    5.0013   -1.2375    0.0000 C   0  0  0  0  0  0  0  0  0  0  0  0
    4.2868   -1.6500    0.0000 C   0  0  0  0  0  0  0  0  0  0  0  0
    3.5724   -1.2375    0.0000 S   0  0  0  0  0  0  0  0  0  0  0  0
    2.8579   -1.6500    0.0000 C   0  0  0  0  0  0  0  0  0  0  0  0
  2  1  2  0  0  0  0
  3  2  1  0  0  0  0
  4  3  2  0  0  0  0
  5  4  1  0  0  0  0
  5  6  1  0  0  0  0
  6  7  1  0  0  0  0
  8  7  2  0  0  0  0
  9  8  1  0  0  0  0
 10  9  2  0  0  0  0
 11 10  1  0  0  0  0
 12 11  2  0  0  0  0
  7 12  1  0  0  0  0
 12 13  1  0  0  0  0
 13 14  1  0  0  0  0
  1 14  1  0  0  0  0
 14  5  2  0  0  0  0
M  END
> <RowID>
1540

> <Original_SMILES>
C1=CC=CC2NC3=CC=CC=C3SC=21

> <Canonical_QSARr>
C1=CC=CC2NC3=CC=CC=C3SC=21

> <InChI_Code_QSARr>
InChI=1S/C12H9NS/c1-3-7-11-9(5-1)13-10-6-2-4-8-12(10)14-11/h1-8,13H

> <InChI Key_QSARr>
WJFKNYWRSNBZNX-UHFFFAOYSA-N

> <Salt_Solvent>


> <Salt_Solvent_ID>
0

> <Number of connected components>
1

$$$$
Molecule_1541
  Mrv2316 01072400032D          

 25 24  0  0  0  0            999 V2000
   -5.3329    2.8579    0.0000 C   0  0  0  0  0  0  0  0  0  0  0  0
   -4.5079    2.8579    0.0000 C   0  0  0  0  0  0  0  0  0  0  0  0
   -4.0954    2.1434    0.0000 C   0  0  0  0  0  0  0  0  0  0  0  0
   -3.2704    2.1434    0.0000 C   0  0  0  0  0  0  0  0  0  0  0  0
   -2.8579    1.4290    0.0000 O   0  0  0  0  0  0  0  0  0  0  0  0
   -2.0329    1.4290    0.0000 C   0  0  0  0  0  0  0  0  0  0  0  0
   -1.6204    2.1434    0.0000 O   0  0  0  0  0  0  0  0  0  0  0  0
   -1.6204    0.7145    0.0000 C   0  0  0  0  0  0  0  0  0  0  0  0
   -1.2079    0.0000    0.0000 O   0  0  0  0  0  0  0  0  0  0  0  0
   -2.3349    0.3020    0.0000 C   0  0  0  0  0  0  0  0  0  0  0  0
   -2.3349   -0.5230    0.0000 C   0  0  0  0  0  0  0  0  0  0  0  0
   -1.6204   -0.9355    0.0000 O   0  0  0  0  0  0  0  0  0  0  0  0
   -3.0493   -0.9355    0.0000 O   0  0  0  0  0  0  0  0  0  0  0  0
   -3.7638   -0.5230    0.0000 C   0  0  0  0  0  0  0  0  0  0  0  0
   -4.4783   -0.9355    0.0000 C   0  0  0  0  0  0  0  0  0  0  0  0
   -5.1927   -0.5230    0.0000 C   0  0  0  0  0  0  0  0  0  0  0  0
   -5.9072   -0.9355    0.0000 C   0  0  0  0  0  0  0  0  0  0  0  0
   -0.9059    1.1270    0.0000 C   0  0  0  0  0  0  0  0  0  0  0  0
   -0.1914    0.7145    0.0000 C   0  0  0  0  0  0  0  0  0  0  0  0
   -0.1914   -0.1105    0.0000 O   0  0  0  0  0  0  0  0  0  0  0  0
    0.5230    1.1270    0.0000 O   0  0  0  0  0  0  0  0  0  0  0  0
    1.2375    0.7145    0.0000 C   0  0  0  0  0  0  0  0  0  0  0  0
    1.9520    1.1270    0.0000 C   0  0  0  0  0  0  0  0  0  0  0  0
    2.6664    0.7145    0.0000 C   0  0  0  0  0  0  0  0  0  0  0  0
    3.3809    1.1270    0.0000 C   0  0  0  0  0  0  0  0  0  0  0  0
  1  2  1  0  0  0  0
  2  3  1  0  0  0  0
  3  4  1  0  0  0  0
  4  5  1  0  0  0  0
  5  6  1  0  0  0  0
  6  7  2  0  0  0  0
  6  8  1  0  0  0  0
  8  9  1  0  0  0  0
  8 10  1  0  0  0  0
 10 11  1  0  0  0  0
 11 12  2  0  0  0  0
 11 13  1  0  0  0  0
 13 14  1  0  0  0  0
 14 15  1  0  0  0  0
 15 16  1  0  0  0  0
 16 17  1  0  0  0  0
  8 18  1  0  0  0  0
 18 19  1  0  0  0  0
 19 20  2  0  0  0  0
 19 21  1  0  0  0  0
 21 22  1  0  0  0  0
 22 23  1  0  0  0  0
 23 24  1  0  0  0  0
 24 25  1  0  0  0  0
M  END
> <RowID>
1541

> <Original_SMILES>
CCCCOC(=O)C(O)(CC(=O)OCCCC)CC(=O)OCCCC

> <Canonical_QSARr>
CCCCOC(=O)C(O)(CC(=O)OCCCC)CC(=O)OCCCC

> <InChI_Code_QSARr>
InChI=1S/C18H32O7/c1-4-7-10-23-15(19)13-18(22,17(21)25-12-9-6-3)14-16(20)24-11-8-5-2/h22H,4-14H2,1-3H3

> <InChI Key_QSARr>
ZFOZVQLOBQUTQQ-UHFFFAOYSA-N

> <Salt_Solvent>


> <Salt_Solvent_ID>
0

> <Number of connected components>
1

$$$$
Molecule_1542
  Mrv2316 01072400032D          

 32 31  0  0  0  0            999 V2000
    9.7086    6.4302    0.0000 C   0  0  0  0  0  0  0  0  0  0  0  0
   10.4230    6.8427    0.0000 C   0  0  0  0  0  0  0  0  0  0  0  0
   11.1375    6.4302    0.0000 C   0  0  0  0  0  0  0  0  0  0  0  0
   11.8520    6.8427    0.0000 C   0  0  0  0  0  0  0  0  0  0  0  0
   12.5664    6.4302    0.0000 C   0  0  0  0  0  0  0  0  0  0  0  0
   13.2809    6.8427    0.0000 C   0  0  0  0  0  0  0  0  0  0  0  0
   13.9954    6.4302    0.0000 C   0  0  0  0  0  0  0  0  0  0  0  0
   14.7099    6.8427    0.0000 C   0  0  0  0  0  0  0  0  0  0  0  0
   15.4243    6.4302    0.0000 C   0  0  0  0  0  0  0  0  0  0  0  0
   16.1388    6.8427    0.0000 C   0  0  0  0  0  0  0  0  0  0  0  0
   16.8533    6.4302    0.0000 C   0  0  0  0  0  0  0  0  0  0  0  0
   17.5677    6.8427    0.0000 C   0  0  0  0  0  0  0  0  0  0  0  0
   18.2822    6.4302    0.0000 O   0  0  0  0  0  0  0  0  0  0  0  0
   18.9967    6.8427    0.0000 C   0  0  0  0  0  0  0  0  0  0  0  0
   18.9967    7.6677    0.0000 O   0  0  0  0  0  0  0  0  0  0  0  0
   19.7112    6.4302    0.0000 C   0  0  0  0  0  0  0  0  0  0  0  0
   20.4256    6.8427    0.0000 C   0  0  0  0  0  0  0  0  0  0  0  0
   21.1401    6.4302    0.0000 C   0  0  0  0  0  0  0  0  0  0  0  0
   21.8546    6.8427    0.0000 C   0  0  0  0  0  0  0  0  0  0  0  0
   22.5690    6.4302    0.0000 C   0  0  0  0  0  0  0  0  0  0  0  0
   23.2835    6.8427    0.0000 C   0  0  0  0  0  0  0  0  0  0  0  0
   23.9980    6.4302    0.0000 C   0  0  0  0  0  0  0  0  0  0  0  0
   24.7124    6.8427    0.0000 C   0  0  0  0  0  0  0  0  0  0  0  0
   25.4269    6.4302    0.0000 C   0  0  0  0  0  0  0  0  0  0  0  0
   26.1414    6.8427    0.0000 C   0  0  0  0  0  0  0  0  0  0  0  0
   26.1414    7.6677    0.0000 C   0  0  0  0  0  0  0  0  0  0  0  0
   26.8559    8.0802    0.0000 C   0  0  0  0  0  0  0  0  0  0  0  0
   26.8559    8.9052    0.0000 C   0  0  0  0  0  0  0  0  0  0  0  0
   27.5703    9.3177    0.0000 C   0  0  0  0  0  0  0  0  0  0  0  0
   27.5703   10.1427    0.0000 C   0  0  0  0  0  0  0  0  0  0  0  0
   28.2848   10.5552    0.0000 C   0  0  0  0  0  0  0  0  0  0  0  0
   28.2848   11.3802    0.0000 C   0  0  0  0  0  0  0  0  0  0  0  0
  1  2  1  0  0  0  0
  2  3  1  0  0  0  0
  3  4  1  0  0  0  0
  4  5  1  0  0  0  0
  5  6  1  0  0  0  0
  6  7  1  0  0  0  0
  7  8  1  0  0  0  0
  8  9  1  0  0  0  0
  9 10  1  0  0  0  0
 10 11  1  0  0  0  0
 11 12  1  0  0  0  0
 12 13  1  0  0  0  0
 13 14  1  0  0  0  0
 14 15  2  0  0  0  0
 14 16  1  0  0  0  0
 16 17  1  0  0  0  0
 17 18  1  0  0  0  0
 18 19  1  0  0  0  0
 19 20  1  0  0  0  0
 20 21  1  0  0  0  0
 21 22  1  0  0  0  0
 23 22  1  4  0  0  0
 23 24  2  0  0  0  0
 24 25  1  0  0  0  0
 25 26  1  0  0  0  0
 26 27  1  0  0  0  0
 27 28  1  0  0  0  0
 28 29  1  0  0  0  0
 29 30  1  0  0  0  0
 30 31  1  0  0  0  0
 31 32  1  0  0  0  0
M  END
> <RowID>
1542

> <Original_SMILES>
CCCCCCCCCCCCOC(=O)CCCCCCCC=CCCCCCCCC

> <Canonical_QSARr>
CCCCCCCCCCCCOC(=O)CCCCCCCC=CCCCCCCCC

> <InChI_Code_QSARr>
InChI=1S/C30H58O2/c1-3-5-7-9-11-13-15-16-17-18-19-20-22-24-26-28-30(31)32-29-27-25-23-21-14-12-10-8-6-4-2/h16-17H,3-15,18-29H2,1-2H3

> <InChI Key_QSARr>
OXPCWUWUWIWSGI-UHFFFAOYSA-N

> <Salt_Solvent>


> <Salt_Solvent_ID>
0

> <Number of connected components>
1

$$$$
Molecule_1545
  Mrv2316 01072400032D          

 50 51  0  0  0  0            999 V2000
    3.5724  -13.2000    0.0000 C   0  0  0  0  0  0  0  0  0  0  0  0
    3.5724  -12.3750    0.0000 C   0  0  0  0  0  0  0  0  0  0  0  0
    4.3974  -12.3750    0.0000 C   0  0  0  0  0  0  0  0  0  0  0  0
    2.7474  -12.3750    0.0000 C   0  0  0  0  0  0  0  0  0  0  0  0
    3.5724  -11.5500    0.0000 C   0  0  0  0  0  0  0  0  0  0  0  0
    4.2868  -11.1375    0.0000 C   0  0  0  0  0  0  0  0  0  0  0  0
    4.2868  -10.3125    0.0000 C   0  0  0  0  0  0  0  0  0  0  0  0
    5.0013   -9.9000    0.0000 C   0  0  0  0  0  0  0  0  0  0  0  0
    5.7158  -10.3125    0.0000 C   0  0  0  0  0  0  0  0  0  0  0  0
    6.4302   -9.9000    0.0000 C   0  0  0  0  0  0  0  0  0  0  0  0
    6.4302   -9.0750    0.0000 O   0  0  0  0  0  0  0  0  0  0  0  0
    7.1447  -10.3125    0.0000 O   0  0  0  0  0  0  0  0  0  0  0  0
    7.8592   -9.9000    0.0000 C   0  0  0  0  0  0  0  0  0  0  0  0
    8.5737  -10.3125    0.0000 C   0  0  0  0  0  0  0  0  0  0  0  0
    9.2881   -9.9000    0.0000 N   0  0  0  0  0  0  0  0  0  0  0  0
   10.0026  -10.3125    0.0000 C   0  0  0  0  0  0  0  0  0  0  0  0
   10.0026  -11.1375    0.0000 O   0  0  0  0  0  0  0  0  0  0  0  0
   10.7171   -9.9000    0.0000 C   0  0  0  0  0  0  0  0  0  0  0  0
   10.7171   -9.0750    0.0000 O   0  0  0  0  0  0  0  0  0  0  0  0
   11.4315  -10.3125    0.0000 N   0  0  0  0  0  0  0  0  0  0  0  0
   12.1460   -9.9000    0.0000 C   0  0  0  0  0  0  0  0  0  0  0  0
   12.8605  -10.3125    0.0000 C   0  0  0  0  0  0  0  0  0  0  0  0
   13.5750   -9.9000    0.0000 O   0  0  0  0  0  0  0  0  0  0  0  0
   14.2894  -10.3125    0.0000 C   0  0  0  0  0  0  0  0  0  0  0  0
   14.2894  -11.1375    0.0000 O   0  0  0  0  0  0  0  0  0  0  0  0
   15.0039   -9.9000    0.0000 C   0  0  0  0  0  0  0  0  0  0  0  0
   15.7184  -10.3125    0.0000 C   0  0  0  0  0  0  0  0  0  0  0  0
   16.4328   -9.9000    0.0000 C   0  0  0  0  0  0  0  0  0  0  0  0
   17.1473  -10.3125    0.0000 C   0  0  0  0  0  0  0  0  0  0  0  0
   17.8618   -9.9000    0.0000 C   0  0  0  0  0  0  0  0  0  0  0  0
   18.5763  -10.3125    0.0000 C   0  0  0  0  0  0  0  0  0  0  0  0
   19.2907  -10.7250    0.0000 C   0  0  0  0  0  0  0  0  0  0  0  0
   18.1638  -11.0270    0.0000 C   0  0  0  0  0  0  0  0  0  0  0  0
   18.9888   -9.5980    0.0000 C   0  0  0  0  0  0  0  0  0  0  0  0
   17.8618   -9.0750    0.0000 C   0  0  0  0  0  0  0  0  0  0  0  0
   18.5763   -8.6625    0.0000 O   0  0  0  0  0  0  0  0  0  0  0  0
   17.1473   -8.6625    0.0000 C   0  0  0  0  0  0  0  0  0  0  0  0
   17.1473   -7.8375    0.0000 C   0  0  0  0  0  0  0  0  0  0  0  0
   17.1473   -7.0125    0.0000 C   0  0  0  0  0  0  0  0  0  0  0  0
   16.3223   -7.8375    0.0000 C   0  0  0  0  0  0  0  0  0  0  0  0
   17.9723   -7.8375    0.0000 C   0  0  0  0  0  0  0  0  0  0  0  0
   16.4328   -9.0750    0.0000 C   0  0  0  0  0  0  0  0  0  0  0  0
    3.5724   -9.9000    0.0000 C   0  0  0  0  0  0  0  0  0  0  0  0
    2.8579  -10.3125    0.0000 C   0  0  0  0  0  0  0  0  0  0  0  0
    2.1434   -9.9000    0.0000 C   0  0  0  0  0  0  0  0  0  0  0  0
    1.4289   -9.4875    0.0000 C   0  0  0  0  0  0  0  0  0  0  0  0
    1.7309  -10.6145    0.0000 C   0  0  0  0  0  0  0  0  0  0  0  0
    2.5559   -9.1855    0.0000 C   0  0  0  0  0  0  0  0  0  0  0  0
    2.8579  -11.1375    0.0000 C   0  0  0  0  0  0  0  0  0  0  0  0
    2.1434  -11.5500    0.0000 O   0  0  0  0  0  0  0  0  0  0  0  0
  1  2  1  0  0  0  0
  2  3  1  0  0  0  0
  2  4  1  0  0  0  0
  2  5  1  0  0  0  0
  6  5  2  0  0  0  0
  7  6  1  0  0  0  0
  7  8  1  0  0  0  0
  8  9  1  0  0  0  0
  9 10  1  0  0  0  0
 10 11  2  0  0  0  0
 10 12  1  0  0  0  0
 12 13  1  0  0  0  0
 13 14  1  0  0  0  0
 14 15  1  0  0  0  0
 15 16  1  0  0  0  0
 16 17  2  0  0  0  0
 16 18  1  0  0  0  0
 18 19  2  0  0  0  0
 18 20  1  0  0  0  0
 20 21  1  0  0  0  0
 21 22  1  0  0  0  0
 22 23  1  0  0  0  0
 23 24  1  0  0  0  0
 24 25  2  0  0  0  0
 24 26  1  0  0  0  0
 26 27  1  0  0  0  0
 27 28  1  0  0  0  0
 29 28  2  0  0  0  0
 30 29  1  0  0  0  0
 30 31  1  0  0  0  0
 31 32  1  0  0  0  0
 31 33  1  0  0  0  0
 31 34  1  0  0  0  0
 35 30  2  0  0  0  0
 35 36  1  0  0  0  0
 37 35  1  0  0  0  0
 37 38  1  0  0  0  0
 38 39  1  0  0  0  0
 38 40  1  0  0  0  0
 38 41  1  0  0  0  0
 42 37  2  0  0  0  0
 28 42  1  0  0  0  0
 43  7  2  0  0  0  0
 44 43  1  0  0  0  0
 44 45  1  0  0  0  0
 45 46  1  0  0  0  0
 45 47  1  0  0  0  0
 45 48  1  0  0  0  0
 49 44  2  0  0  0  0
  5 49  1  0  0  0  0
 49 50  1  0  0  0  0
M  END
> <RowID>
1545

> <Original_SMILES>
CC(C)(C)C1=CC(CCC(=O)OCCNC(=O)C(=O)NCCOC(=O)CCC2=CC(=C(O)C(=C2)C(C)(C)C)C(C)(C)C)=CC(=C1O)C(C)(C)C

> <Canonical_QSARr>
CC(C)(C)C1=CC(CCC(=O)OCCNC(=O)C(=O)NCCOC(=O)CCC2=CC(=C(O)C(=C2)C(C)(C)C)C(C)(C)C)=CC(=C1O)C(C)(C)C

> <InChI_Code_QSARr>
InChI=1S/C40H60N2O8/c1-37(2,3)27-21-25(22-28(33(27)45)38(4,5)6)13-15-31(43)49-19-17-41-35(47)36(48)42-18-20-50-32(44)16-14-26-23-29(39(7,8)9)34(46)30(24-26)40(10,11)12/h21-24,45-46H,13-20H2,1-12H3,(H,41,47)(H,42,48)

> <InChI Key_QSARr>
OXWDLAHVJDUQJM-UHFFFAOYSA-N

> <Salt_Solvent>


> <Salt_Solvent_ID>
0

> <Number of connected components>
1

$$$$
Molecule_1546
  Mrv2316 01072400032D          

 12 13  0  0  0  0            999 V2000
   -1.4603   -3.1061    0.0000 N   0  0  0  0  0  0  0  0  0  0  0  0
   -1.2054   -2.3215    0.0000 C   0  0  0  0  0  0  0  0  0  0  0  0
   -0.3984   -2.1500    0.0000 C   0  0  0  0  0  0  0  0  0  0  0  0
   -0.1435   -1.3654    0.0000 C   0  0  0  0  0  0  0  0  0  0  0  0
    0.6411   -1.1104    0.0000 C   0  0  0  0  0  0  0  0  0  0  0  0
    0.6411   -0.2854    0.0000 C   0  0  0  0  0  0  0  0  0  0  0  0
    1.3556    0.1271    0.0000 C   0  0  0  0  0  0  0  0  0  0  0  0
    2.0701   -0.2854    0.0000 C   0  0  0  0  0  0  0  0  0  0  0  0
    2.0701   -1.1104    0.0000 C   0  0  0  0  0  0  0  0  0  0  0  0
    1.3556   -1.5229    0.0000 C   0  0  0  0  0  0  0  0  0  0  0  0
   -0.1435   -0.0305    0.0000 N   0  0  0  0  0  0  0  0  0  0  0  0
   -0.6284   -0.6979    0.0000 C   0  0  0  0  0  0  0  0  0  0  0  0
  1  2  1  0  0  0  0
  2  3  1  0  0  0  0
  3  4  1  0  0  0  0
  5  4  1  0  0  0  0
  5  6  1  0  0  0  0
  6  7  2  0  0  0  0
  7  8  1  0  0  0  0
  8  9  2  0  0  0  0
  9 10  1  0  0  0  0
 10  5  2  0  0  0  0
 11  6  1  0  0  0  0
 12 11  1  0  0  0  0
  4 12  2  0  0  0  0
M  END
> <RowID>
1546

> <Original_SMILES>
NCCC1=CNC2=CC=CC=C21.OP(O)(O)=O

> <Canonical_QSARr>
NCCC1=CNC2=CC=CC=C21

> <InChI_Code_QSARr>
InChI=1S/C10H12N2/c11-6-5-8-7-12-10-4-2-1-3-9(8)10/h1-4,7,12H,5-6,11H2

> <InChI Key_QSARr>
APJYDQYYACXCRM-UHFFFAOYSA-N

> <Salt_Solvent>
OP(=O)(O)O

> <Salt_Solvent_ID>
2041

> <Number of connected components>
2

$$$$
Molecule_1547
  Mrv2316 01072400032D          

 11 10  0  0  0  0            999 V2000
    4.2355   -3.2704    0.0000 C   0  0  0  0  0  0  0  0  0  0  0  0
    4.9500   -2.8579    0.0000 C   0  0  0  0  0  0  0  0  0  0  0  0
    5.6645   -3.2704    0.0000 C   0  0  0  0  0  0  0  0  0  0  0  0
    6.3789   -2.8579    0.0000 C   0  0  0  0  0  0  0  0  0  0  0  0
    7.0934   -3.2704    0.0000 C   0  0  0  0  0  0  0  0  0  0  0  0
    7.8079   -2.8579    0.0000 C   0  0  0  0  0  0  0  0  0  0  0  0
    8.5224   -3.2704    0.0000 C   0  0  0  0  0  0  0  0  0  0  0  0
    9.2368   -2.8579    0.0000 C   0  0  0  0  0  0  0  0  0  0  0  0
    9.9513   -3.2704    0.0000 C   0  0  0  0  0  0  0  0  0  0  0  0
   10.6658   -2.8579    0.0000 C   0  0  0  0  0  0  0  0  0  0  0  0
   11.3802   -2.4454    0.0000 N   0  0  0  0  0  0  0  0  0  0  0  0
  1  2  1  0  0  0  0
  2  3  1  0  0  0  0
  3  4  1  0  0  0  0
  4  5  1  0  0  0  0
  5  6  1  0  0  0  0
  6  7  1  0  0  0  0
  7  8  1  0  0  0  0
  8  9  1  0  0  0  0
  9 10  1  0  0  0  0
 10 11  3  0  0  0  0
M  END
> <RowID>
1547

> <Original_SMILES>
CCCCCCCCCC#N

> <Canonical_QSARr>
CCCCCCCCCC#N

> <InChI_Code_QSARr>
InChI=1S/C10H19N/c1-2-3-4-5-6-7-8-9-10-11/h2-9H2,1H3

> <InChI Key_QSARr>
HBZDPWBWBJMYRY-UHFFFAOYSA-N

> <Salt_Solvent>


> <Salt_Solvent_ID>
0

> <Number of connected components>
1

$$$$
Molecule_1548
  Mrv2316 01072400032D          

 28 30  0  0  0  0            999 V2000
   -0.2426   -0.5421    0.0000 C   0  0  0  0  0  0  0  0  0  0  0  0
    0.5420   -0.2872    0.0000 N   0  0  0  0  0  0  0  0  0  0  0  0
    1.1551   -0.8392    0.0000 N   0  0  0  0  0  0  0  0  0  0  0  0
    1.9397   -0.5843    0.0000 C   0  0  0  0  0  0  0  0  0  0  0  0
    2.5528   -1.1363    0.0000 C   0  0  0  0  0  0  0  0  0  0  0  0
    3.3374   -0.8814    0.0000 C   0  0  0  0  0  0  0  0  0  0  0  0
    3.9505   -1.4334    0.0000 S   0  0  0  0  0  0  0  0  0  0  0  0
    4.5636   -1.9854    0.0000 N   0  0  0  0  0  0  0  0  0  0  0  0
    5.3482   -1.7305    0.0000 C   0  0  0  0  0  0  0  0  0  0  0  0
    4.5025   -0.8203    0.0000 O   0  0  0  0  0  0  0  0  0  0  0  0
    3.3985   -2.0465    0.0000 O   0  0  0  0  0  0  0  0  0  0  0  0
    3.5089   -0.0744    0.0000 C   0  0  0  0  0  0  0  0  0  0  0  0
    2.8958    0.4777    0.0000 C   0  0  0  0  0  0  0  0  0  0  0  0
    2.1112    0.2227    0.0000 C   0  0  0  0  0  0  0  0  0  0  0  0
    1.4981    0.7747    0.0000 O   0  0  0  0  0  0  0  0  0  0  0  0
   -0.9101   -0.0572    0.0000 C   0  0  0  0  0  0  0  0  0  0  0  0
   -0.9101    0.7678    0.0000 O   0  0  0  0  0  0  0  0  0  0  0  0
   -1.5775   -0.5421    0.0000 N   0  0  0  0  0  0  0  0  0  0  0  0
   -2.3621   -0.2872    0.0000 C   0  0  0  0  0  0  0  0  0  0  0  0
   -2.5337    0.5198    0.0000 C   0  0  0  0  0  0  0  0  0  0  0  0
   -3.3183    0.7747    0.0000 C   0  0  0  0  0  0  0  0  0  0  0  0
   -3.9314    0.2227    0.0000 C   0  0  0  0  0  0  0  0  0  0  0  0
   -3.7599   -0.5843    0.0000 C   0  0  0  0  0  0  0  0  0  0  0  0
   -4.3730   -1.1363    0.0000 Cl  0  0  0  0  0  0  0  0  0  0  0  0
   -2.9752   -0.8392    0.0000 C   0  0  0  0  0  0  0  0  0  0  0  0
   -1.3226   -1.3267    0.0000 N   0  0  0  0  0  0  0  0  0  0  0  0
   -0.4976   -1.3267    0.0000 C   0  0  0  0  0  0  0  0  0  0  0  0
   -0.0127   -1.9942    0.0000 C   0  0  0  0  0  0  0  0  0  0  0  0
  2  1  1  4  0  0  0
  2  3  2  0  0  0  0
  3  4  1  0  0  0  0
  5  4  1  0  0  0  0
  6  5  2  0  0  0  0
  6  7  1  0  0  0  0
  7  8  1  0  0  0  0
  8  9  1  0  0  0  0
  7 10  2  0  0  0  0
  7 11  2  0  0  0  0
 12  6  1  0  0  0  0
 13 12  2  0  0  0  0
 14 13  1  0  0  0  0
  4 14  2  0  0  0  0
 14 15  1  0  0  0  0
 16  1  1  0  0  0  0
 16 17  2  0  0  0  0
 18 16  1  0  0  0  0
 18 19  1  0  0  0  0
 20 19  2  0  0  0  0
 21 20  1  0  0  0  0
 22 21  2  0  0  0  0
 23 22  1  0  0  0  0
 23 24  1  0  0  0  0
 25 23  2  0  0  0  0
 19 25  1  0  0  0  0
 26 18  1  0  0  0  0
 27 26  2  0  0  0  0
  1 27  1  0  0  0  0
 27 28  1  0  0  0  0
M  END
> <RowID>
1548

> <Original_SMILES>
[Na+].[Cr-].CC1=NN(C2C=C(Cl)C=CC=2)C(=O)[C-]1N=NC1=CC(=CC=C1[O-])S(=O)(=O)NC.CC1=NN(C2C=C(Cl)C=CC=2)C(=O)[C-]1N=NC1=CC(=CC=C1[O-])S(=O)(=O)NC

> <Canonical_QSARr>
CC1=NN(C2C=C(Cl)C=CC=2)C(=O)C1N=NC1C=C(C=CC=1O)S(=O)(=O)NC

> <InChI_Code_QSARr>
InChI=1S/C17H16ClN5O4S/c1-10-16(17(25)23(22-10)12-5-3-4-11(18)8-12)21-20-14-9-13(6-7-15(14)24)28(26,27)19-2/h3-9,16,19,24H,1-2H3

> <InChI Key_QSARr>
OEXFOCUVCQCIRJ-UHFFFAOYSA-N

> <Salt_Solvent>
[Na+].[Cr-]

> <Salt_Solvent_ID>
175

> <Number of connected components>
4

$$$$
Molecule_1550
  Mrv2316 01072400032D          

 36 35  0  0  0  0            999 V2000
   17.1336   10.7171    0.0000 C   0  0  0  0  0  0  0  0  0  0  0  0
   17.8480   11.1296    0.0000 C   0  0  0  0  0  0  0  0  0  0  0  0
   18.5625   10.7171    0.0000 C   0  0  0  0  0  0  0  0  0  0  0  0
   19.2770   11.1296    0.0000 C   0  0  0  0  0  0  0  0  0  0  0  0
   19.9914   10.7171    0.0000 O   0  0  0  0  0  0  0  0  0  0  0  0
   20.7059   11.1296    0.0000 C   0  0  0  0  0  0  0  0  0  0  0  0
   21.4204   10.7171    0.0000 C   0  0  0  0  0  0  0  0  0  0  0  0
   22.1349   11.1296    0.0000 O   0  0  0  0  0  0  0  0  0  0  0  0
   22.8493   10.7171    0.0000 C   0  0  0  0  0  0  0  0  0  0  0  0
   23.5638   11.1296    0.0000 C   0  0  0  0  0  0  0  0  0  0  0  0
   24.2783   10.7171    0.0000 O   0  0  0  0  0  0  0  0  0  0  0  0
   24.9927   11.1296    0.0000 C   0  0  0  0  0  0  0  0  0  0  0  0
   25.7072   10.7171    0.0000 C   0  0  0  0  0  0  0  0  0  0  0  0
   26.4217   11.1296    0.0000 O   0  0  0  0  0  0  0  0  0  0  0  0
   27.1362   10.7171    0.0000 C   0  0  0  0  0  0  0  0  0  0  0  0
   27.1362    9.8921    0.0000 O   0  0  0  0  0  0  0  0  0  0  0  0
   27.8506   11.1296    0.0000 C   0  0  0  0  0  0  0  0  0  0  0  0
   28.5651   10.7171    0.0000 C   0  0  0  0  0  0  0  0  0  0  0  0
   29.2796   11.1296    0.0000 C   0  0  0  0  0  0  0  0  0  0  0  0
   29.9940   10.7171    0.0000 C   0  0  0  0  0  0  0  0  0  0  0  0
   30.7085   11.1296    0.0000 C   0  0  0  0  0  0  0  0  0  0  0  0
   30.7085   11.9546    0.0000 O   0  0  0  0  0  0  0  0  0  0  0  0
   31.4230   10.7171    0.0000 O   0  0  0  0  0  0  0  0  0  0  0  0
   32.1375   11.1296    0.0000 C   0  0  0  0  0  0  0  0  0  0  0  0
   32.8519   10.7171    0.0000 C   0  0  0  0  0  0  0  0  0  0  0  0
   33.5664   11.1296    0.0000 O   0  0  0  0  0  0  0  0  0  0  0  0
   34.2809   10.7171    0.0000 C   0  0  0  0  0  0  0  0  0  0  0  0
   34.9953   11.1296    0.0000 C   0  0  0  0  0  0  0  0  0  0  0  0
   35.7098   10.7171    0.0000 O   0  0  0  0  0  0  0  0  0  0  0  0
   36.4243   11.1296    0.0000 C   0  0  0  0  0  0  0  0  0  0  0  0
   37.1387   10.7171    0.0000 C   0  0  0  0  0  0  0  0  0  0  0  0
   37.8532   11.1296    0.0000 O   0  0  0  0  0  0  0  0  0  0  0  0
   38.5677   10.7171    0.0000 C   0  0  0  0  0  0  0  0  0  0  0  0
   39.2822   11.1296    0.0000 C   0  0  0  0  0  0  0  0  0  0  0  0
   39.9966   10.7171    0.0000 C   0  0  0  0  0  0  0  0  0  0  0  0
   40.7111   11.1296    0.0000 C   0  0  0  0  0  0  0  0  0  0  0  0
  1  2  1  0  0  0  0
  2  3  1  0  0  0  0
  3  4  1  0  0  0  0
  4  5  1  0  0  0  0
  5  6  1  0  0  0  0
  6  7  1  0  0  0  0
  7  8  1  0  0  0  0
  8  9  1  0  0  0  0
  9 10  1  0  0  0  0
 10 11  1  0  0  0  0
 11 12  1  0  0  0  0
 12 13  1  0  0  0  0
 13 14  1  0  0  0  0
 14 15  1  0  0  0  0
 15 16  2  0  0  0  0
 15 17  1  0  0  0  0
 17 18  1  0  0  0  0
 18 19  1  0  0  0  0
 19 20  1  0  0  0  0
 20 21  1  0  0  0  0
 21 22  2  0  0  0  0
 21 23  1  0  0  0  0
 23 24  1  0  0  0  0
 24 25  1  0  0  0  0
 25 26  1  0  0  0  0
 26 27  1  0  0  0  0
 27 28  1  0  0  0  0
 28 29  1  0  0  0  0
 29 30  1  0  0  0  0
 30 31  1  0  0  0  0
 31 32  1  0  0  0  0
 32 33  1  0  0  0  0
 33 34  1  0  0  0  0
 34 35  1  0  0  0  0
 35 36  1  0  0  0  0
M  END
> <RowID>
1550

> <Original_SMILES>
CCCCOCCOCCOCCOC(=O)CCCCC(=O)OCCOCCOCCOCCCC

> <Canonical_QSARr>
CCCCOCCOCCOCCOC(=O)CCCCC(=O)OCCOCCOCCOCCCC

> <InChI_Code_QSARr>
InChI=1S/C26H50O10/c1-3-5-11-29-13-15-31-17-19-33-21-23-35-25(27)9-7-8-10-26(28)36-24-22-34-20-18-32-16-14-30-12-6-4-2/h3-24H2,1-2H3

> <InChI Key_QSARr>
NRUKYANAWUDQNY-UHFFFAOYSA-N

> <Salt_Solvent>


> <Salt_Solvent_ID>
0

> <Number of connected components>
1

$$$$
Molecule_1551
  Mrv2316 01072400032D          

  9  8  0  0  0  0            999 V2000
    0.8250   -1.4289    0.0000 C   0  0  0  0  0  0  0  0  0  0  0  0
    1.2375   -2.1434    0.0000 C   0  0  0  0  0  0  0  0  0  0  0  0
    2.0625   -2.1434    0.0000 C   0  0  0  0  0  0  0  0  0  0  0  0
    2.4750   -2.8579    0.0000 C   0  0  0  0  0  0  0  0  0  0  0  0
    3.3000   -2.8579    0.0000 C   0  0  0  0  0  0  0  0  0  0  0  0
    3.7125   -3.5724    0.0000 C   0  0  0  0  0  0  0  0  0  0  0  0
    4.5375   -3.5724    0.0000 Cl  0  0  0  0  0  0  0  0  0  0  0  0
    3.7125   -2.1434    0.0000 C   0  0  0  0  0  0  0  0  0  0  0  0
    4.5375   -2.1434    0.0000 C   0  0  0  0  0  0  0  0  0  0  0  0
  1  2  1  0  0  0  0
  2  3  1  0  0  0  0
  3  4  1  0  0  0  0
  4  5  1  0  0  0  0
  5  6  1  0  0  0  0
  6  7  1  0  0  0  0
  5  8  1  0  0  0  0
  8  9  1  0  0  0  0
M  END
> <RowID>
1551

> <Original_SMILES>
CCCCC(CCl)CC

> <Canonical_QSARr>
CCCCC(CCl)CC

> <InChI_Code_QSARr>
InChI=1S/C8H17Cl/c1-3-5-6-8(4-2)7-9/h8H,3-7H2,1-2H3

> <InChI Key_QSARr>
WLVCBAMXYMWGLJ-UHFFFAOYSA-N

> <Salt_Solvent>


> <Salt_Solvent_ID>
0

> <Number of connected components>
1

$$$$
Molecule_1552
  Mrv2316 01072400032D          

 58 63  0  0  0  0            999 V2000
    9.6577   -2.1905    0.0000 O   0  0  0  0  0  0  0  0  0  0  0  0
    8.9432   -2.6030    0.0000 S   0  0  0  0  0  0  0  0  0  0  0  0
    9.3557   -3.3175    0.0000 O   0  0  0  0  0  0  0  0  0  0  0  0
    8.5307   -1.8885    0.0000 O   0  0  0  0  0  0  0  0  0  0  0  0
    8.2287   -3.0155    0.0000 C   0  0  0  0  0  0  0  0  0  0  0  0
    7.5143   -2.6030    0.0000 C   0  0  0  0  0  0  0  0  0  0  0  0
    7.5143   -1.7780    0.0000 C   0  0  0  0  0  0  0  0  0  0  0  0
    8.2287   -1.3655    0.0000 C   0  0  0  0  0  0  0  0  0  0  0  0
    8.2287   -0.5405    0.0000 C   0  0  0  0  0  0  0  0  0  0  0  0
    8.9432   -0.1280    0.0000 C   0  0  0  0  0  0  0  0  0  0  0  0
    9.6577   -0.5405    0.0000 S   0  0  0  0  0  0  0  0  0  0  0  0
   10.3721   -0.9530    0.0000 O   0  0  0  0  0  0  0  0  0  0  0  0
   10.0702    0.1740    0.0000 O   0  0  0  0  0  0  0  0  0  0  0  0
    9.2452   -1.2550    0.0000 O   0  0  0  0  0  0  0  0  0  0  0  0
    8.9432    0.6970    0.0000 C   0  0  0  0  0  0  0  0  0  0  0  0
    8.2287    1.1095    0.0000 C   0  0  0  0  0  0  0  0  0  0  0  0
    8.2287    1.9345    0.0000 N   0  0  0  0  0  0  0  0  0  0  0  0
    7.5143    2.3470    0.0000 C   0  0  0  0  0  0  0  0  0  0  0  0
    7.5143    3.1720    0.0000 N   0  0  0  0  0  0  0  0  0  0  0  0
    6.7998    3.5845    0.0000 C   0  0  0  0  0  0  0  0  0  0  0  0
    6.7998    4.4095    0.0000 N   0  0  0  0  0  0  0  0  0  0  0  0
    6.0853    4.8220    0.0000 C   0  0  0  0  0  0  0  0  0  0  0  0
    5.3708    4.4095    0.0000 C   0  0  0  0  0  0  0  0  0  0  0  0
    4.6564    4.8220    0.0000 O   0  0  0  0  0  0  0  0  0  0  0  0
    6.0853    3.1720    0.0000 N   0  0  0  0  0  0  0  0  0  0  0  0
    6.0853    2.3470    0.0000 C   0  0  0  0  0  0  0  0  0  0  0  0
    5.3708    1.9345    0.0000 N   0  0  0  0  0  0  0  0  0  0  0  0
    4.6564    2.3470    0.0000 C   0  0  0  0  0  0  0  0  0  0  0  0
    4.6564    3.1720    0.0000 C   0  0  0  0  0  0  0  0  0  0  0  0
    3.9419    3.5845    0.0000 C   0  0  0  0  0  0  0  0  0  0  0  0
    3.2274    3.1720    0.0000 C   0  0  0  0  0  0  0  0  0  0  0  0
    3.2274    2.3470    0.0000 C   0  0  0  0  0  0  0  0  0  0  0  0
    3.9419    1.9345    0.0000 C   0  0  0  0  0  0  0  0  0  0  0  0
    6.7998    1.9345    0.0000 N   0  0  0  0  0  0  0  0  0  0  0  0
    7.5143    0.6970    0.0000 C   0  0  0  0  0  0  0  0  0  0  0  0
    7.5143   -0.1280    0.0000 C   0  0  0  0  0  0  0  0  0  0  0  0
    6.7998   -3.0155    0.0000 C   0  0  0  0  0  0  0  0  0  0  0  0
    6.7998   -3.8405    0.0000 C   0  0  0  0  0  0  0  0  0  0  0  0
    7.5143   -4.2530    0.0000 C   0  0  0  0  0  0  0  0  0  0  0  0
    7.5143   -5.0780    0.0000 N   0  0  0  0  0  0  0  0  0  0  0  0
    6.7998   -5.4905    0.0000 C   0  0  0  0  0  0  0  0  0  0  0  0
    6.0853   -5.0780    0.0000 N   0  0  0  0  0  0  0  0  0  0  0  0
    5.3708   -5.4905    0.0000 C   0  0  0  0  0  0  0  0  0  0  0  0
    4.6564   -5.0780    0.0000 N   0  0  0  0  0  0  0  0  0  0  0  0
    3.9419   -5.4905    0.0000 C   0  0  0  0  0  0  0  0  0  0  0  0
    3.9419   -6.3155    0.0000 C   0  0  0  0  0  0  0  0  0  0  0  0
    3.2274   -6.7280    0.0000 O   0  0  0  0  0  0  0  0  0  0  0  0
    5.3708   -6.3155    0.0000 N   0  0  0  0  0  0  0  0  0  0  0  0
    6.0853   -6.7280    0.0000 C   0  0  0  0  0  0  0  0  0  0  0  0
    6.0853   -7.5530    0.0000 N   0  0  0  0  0  0  0  0  0  0  0  0
    6.7998   -7.9655    0.0000 C   0  0  0  0  0  0  0  0  0  0  0  0
    6.7998   -8.7905    0.0000 C   0  0  0  0  0  0  0  0  0  0  0  0
    7.5143   -9.2030    0.0000 C   0  0  0  0  0  0  0  0  0  0  0  0
    8.2287   -8.7905    0.0000 C   0  0  0  0  0  0  0  0  0  0  0  0
    8.2287   -7.9655    0.0000 C   0  0  0  0  0  0  0  0  0  0  0  0
    7.5143   -7.5530    0.0000 C   0  0  0  0  0  0  0  0  0  0  0  0
    6.7998   -6.3155    0.0000 N   0  0  0  0  0  0  0  0  0  0  0  0
    8.2287   -3.8405    0.0000 C   0  0  0  0  0  0  0  0  0  0  0  0
  1  2  1  0  0  0  0
  2  3  2  0  0  0  0
  2  4  2  0  0  0  0
  2  5  1  0  0  0  0
  6  5  2  0  0  0  0
  7  6  1  4  0  0  0
  7  8  2  0  0  0  0
  8  9  1  0  0  0  0
 10  9  2  0  0  0  0
 10 11  1  0  0  0  0
 11 12  1  0  0  0  0
 11 13  2  0  0  0  0
 11 14  2  0  0  0  0
 15 10  1  0  0  0  0
 16 15  2  0  0  0  0
 16 17  1  0  0  0  0
 17 18  1  0  0  0  0
 19 18  2  0  0  0  0
 20 19  1  0  0  0  0
 20 21  1  0  0  0  0
 21 22  1  0  0  0  0
 22 23  1  0  0  0  0
 23 24  1  0  0  0  0
 25 20  2  0  0  0  0
 26 25  1  0  0  0  0
 26 27  1  0  0  0  0
 27 28  1  0  0  0  0
 29 28  2  0  0  0  0
 30 29  1  0  0  0  0
 31 30  2  0  0  0  0
 32 31  1  0  0  0  0
 33 32  2  0  0  0  0
 28 33  1  0  0  0  0
 34 26  2  0  0  0  0
 18 34  1  0  0  0  0
 35 16  1  0  0  0  0
 36 35  2  0  0  0  0
  9 36  1  0  0  0  0
 37  6  1  0  0  0  0
 38 37  2  0  0  0  0
 39 38  1  0  0  0  0
 39 40  1  0  0  0  0
 40 41  1  0  0  0  0
 42 41  2  0  0  0  0
 43 42  1  0  0  0  0
 43 44  1  0  0  0  0
 44 45  1  0  0  0  0
 45 46  1  0  0  0  0
 46 47  1  0  0  0  0
 48 43  2  0  0  0  0
 49 48  1  0  0  0  0
 49 50  1  0  0  0  0
 50 51  1  0  0  0  0
 52 51  2  0  0  0  0
 53 52  1  0  0  0  0
 54 53  2  0  0  0  0
 55 54  1  0  0  0  0
 56 55  2  0  0  0  0
 51 56  1  0  0  0  0
 57 49  2  0  0  0  0
 41 57  1  0  0  0  0
 58 39  2  0  0  0  0
  5 58  1  0  0  0  0
M  END
> <RowID>
1552

> <Original_SMILES>
[Na+].[Na+].[O-]S(=O)(=O)C1C=C(C=CC=1C=CC1C=CC(=CC=1S([O-])(=O)=O)NC1=NC(NC2C=CC=CC=2)=NC(NCCO)=N1)NC1=NC(NC2C=CC=CC=2)=NC(NCCO)=N1

> <Canonical_QSARr>
OS(=O)(=O)C1C=C(C=CC=1C=CC1C=CC(=CC=1S(O)(=O)=O)NC1N=C(NC2C=CC=CC=2)N=C(NCCO)N=1)NC1N=C(NC2C=CC=CC=2)N=C(NCCO)N=1

> <InChI_Code_QSARr>
InChI=1S/C36H36N12O8S2/c49-19-17-37-31-43-33(39-25-7-3-1-4-8-25)47-35(45-31)41-27-15-13-23(29(21-27)57(51,52)53)11-12-24-14-16-28(22-30(24)58(54,55)56)42-36-46-32(38-18-20-50)44-34(48-36)40-26-9-5-2-6-10-26/h1-16,21-22,49-50H,17-20H2,(H,51,52,53)(H,54,55,56)(H3,37,39,41,43,45,47)(H3,38,40,42,44,46,48)

> <InChI Key_QSARr>
UCYJMVLISUTARN-UHFFFAOYSA-N

> <Salt_Solvent>
[Na+]

> <Salt_Solvent_ID>
110

> <Number of connected components>
3

$$$$
Molecule_1553
  Mrv2316 01072400032D          

 25 29  0  0  0  0            999 V2000
    4.2632    1.2260    0.0000 O   0  0  0  0  0  0  0  0  0  0  0  0
    4.1680    0.4065    0.0000 C   0  0  0  0  0  0  0  0  0  0  0  0
    4.7749   -0.1523    0.0000 C   0  0  0  0  0  0  0  0  0  0  0  0
    4.4311   -0.9022    0.0000 C   0  0  0  0  0  0  0  0  0  0  0  0
    4.9086   -1.5749    0.0000 C   0  0  0  0  0  0  0  0  0  0  0  0
    4.5648   -2.3249    0.0000 Cl  0  0  0  0  0  0  0  0  0  0  0  0
    5.7300   -1.4977    0.0000 C   0  0  0  0  0  0  0  0  0  0  0  0
    6.2075   -2.1705    0.0000 Cl  0  0  0  0  0  0  0  0  0  0  0  0
    6.0739   -0.7478    0.0000 C   0  0  0  0  0  0  0  0  0  0  0  0
    6.8952   -0.6706    0.0000 Cl  0  0  0  0  0  0  0  0  0  0  0  0
    5.5963   -0.0751    0.0000 C   0  0  0  0  0  0  0  0  0  0  0  0
    5.9402    0.6749    0.0000 Cl  0  0  0  0  0  0  0  0  0  0  0  0
    3.6116   -0.8069    0.0000 C   0  0  0  0  0  0  0  0  0  0  0  0
    2.9925   -1.3521    0.0000 N   0  0  0  0  0  0  0  0  0  0  0  0
    2.2107   -1.0886    0.0000 C   0  0  0  0  0  0  0  0  0  0  0  0
    1.5916   -1.6338    0.0000 C   0  0  0  0  0  0  0  0  0  0  0  0
    0.8098   -1.3702    0.0000 C   0  0  0  0  0  0  0  0  0  0  0  0
    0.6472   -0.5614    0.0000 C   0  0  0  0  0  0  0  0  0  0  0  0
    1.2663   -0.0162    0.0000 C   0  0  0  0  0  0  0  0  0  0  0  0
    1.1037    0.7926    0.0000 C   0  0  0  0  0  0  0  0  0  0  0  0
    1.7228    1.3379    0.0000 C   0  0  0  0  0  0  0  0  0  0  0  0
    2.5046    1.0743    0.0000 C   0  0  0  0  0  0  0  0  0  0  0  0
    2.6672    0.2655    0.0000 C   0  0  0  0  0  0  0  0  0  0  0  0
    3.4490    0.0019    0.0000 N   0  0  0  0  0  0  0  0  0  0  0  0
    2.0481   -0.2798    0.0000 C   0  0  0  0  0  0  0  0  0  0  0  0
  1  2  2  0  0  0  0
  3  2  1  0  0  0  0
  3  4  2  0  0  0  0
  4  5  1  0  0  0  0
  5  6  1  0  0  0  0
  5  7  2  0  0  0  0
  7  8  1  0  0  0  0
  7  9  1  0  0  0  0
  9 10  1  0  0  0  0
  9 11  2  0  0  0  0
 11  3  1  0  0  0  0
 11 12  1  0  0  0  0
 13  4  1  0  0  0  0
 13 14  2  0  0  0  0
 14 15  1  0  0  0  0
 16 15  1  0  0  0  0
 17 16  2  0  0  0  0
 18 17  1  0  0  0  0
 19 18  2  0  0  0  0
 19 20  1  0  0  0  0
 20 21  2  0  0  0  0
 21 22  1  0  0  0  0
 22 23  2  0  0  0  0
 23 24  1  0  0  0  0
  2 24  1  0  0  0  0
 24 13  1  0  0  0  0
 23 25  1  0  0  0  0
 15 25  2  0  0  0  0
 25 19  1  0  0  0  0
M  END
> <RowID>
1553

> <Original_SMILES>
O=C1C2=C(C3=NC4C=CC=C5C=CC=C(C5=4)N31)C(Cl)=C(Cl)C(Cl)=C2Cl

> <Canonical_QSARr>
O=C1C2=C(C3=NC4C=CC=C5C=CC=C(C5=4)N31)C(Cl)=C(Cl)C(Cl)=C2Cl

> <InChI_Code_QSARr>
InChI=1S/C18H6Cl4N2O/c19-13-11-12(14(20)16(22)15(13)21)18(25)24-9-6-2-4-7-3-1-5-8(10(7)9)23-17(11)24/h1-6H

> <InChI Key_QSARr>
UBZVRROHBDDCQY-UHFFFAOYSA-N

> <Salt_Solvent>


> <Salt_Solvent_ID>
0

> <Number of connected components>
1

$$$$
Molecule_1554
  Mrv2316 01072400032D          

 12 12  0  0  0  0            999 V2000
    1.5480    3.7125    0.0000 C   0  0  0  0  0  0  0  0  0  0  0  0
    0.8335    3.3000    0.0000 O   0  0  0  0  0  0  0  0  0  0  0  0
    0.8335    2.4750    0.0000 C   0  0  0  0  0  0  0  0  0  0  0  0
    1.5480    2.0625    0.0000 O   0  0  0  0  0  0  0  0  0  0  0  0
    0.1191    2.0625    0.0000 C   0  0  0  0  0  0  0  0  0  0  0  0
   -0.5954    2.4750    0.0000 O   0  0  0  0  0  0  0  0  0  0  0  0
    0.1191    1.2375    0.0000 C   0  0  0  0  0  0  0  0  0  0  0  0
   -0.5954    0.8250    0.0000 C   0  0  0  0  0  0  0  0  0  0  0  0
   -0.5954   -0.0000    0.0000 C   0  0  0  0  0  0  0  0  0  0  0  0
    0.1191   -0.4125    0.0000 C   0  0  0  0  0  0  0  0  0  0  0  0
    0.8335    0.0000    0.0000 C   0  0  0  0  0  0  0  0  0  0  0  0
    0.8335    0.8250    0.0000 C   0  0  0  0  0  0  0  0  0  0  0  0
  1  2  1  0  0  0  0
  2  3  1  0  0  0  0
  3  4  2  0  0  0  0
  3  5  1  0  0  0  0
  5  6  2  0  0  0  0
  5  7  1  0  0  0  0
  8  7  1  0  0  0  0
  9  8  2  0  0  0  0
 10  9  1  0  0  0  0
 11 10  2  0  0  0  0
 12 11  1  0  0  0  0
  7 12  2  0  0  0  0
M  END
> <RowID>
1554

> <Original_SMILES>
COC(=O)C(=O)C1C=CC=CC=1

> <Canonical_QSARr>
COC(=O)C(=O)C1C=CC=CC=1

> <InChI_Code_QSARr>
InChI=1S/C9H8O3/c1-12-9(11)8(10)7-5-3-2-4-6-7/h2-6H,1H3

> <InChI Key_QSARr>
YLHXLHGIAMFFBU-UHFFFAOYSA-N

> <Salt_Solvent>


> <Salt_Solvent_ID>
0

> <Number of connected components>
1

$$$$
Molecule_1555
  Mrv2316 01072400032D          

 11 11  0  0  0  0            999 V2000
    0.7145   -2.2875    0.0000 C   0  0  0  0  0  0  0  0  0  0  0  0
    0.7145   -1.4625    0.0000 C   0  0  0  0  0  0  0  0  0  0  0  0
    1.4290   -1.0500    0.0000 C   0  0  0  0  0  0  0  0  0  0  0  0
    1.4290   -0.2250    0.0000 C   0  0  0  0  0  0  0  0  0  0  0  0
    0.7145    0.1875    0.0000 C   0  0  0  0  0  0  0  0  0  0  0  0
    0.7145    1.0125    0.0000 C   0  0  0  0  0  0  0  0  0  0  0  0
    0.7145    1.8375    0.0000 C   0  0  0  0  0  0  0  0  0  0  0  0
    1.5395    1.0125    0.0000 C   0  0  0  0  0  0  0  0  0  0  0  0
   -0.1105    1.0125    0.0000 C   0  0  0  0  0  0  0  0  0  0  0  0
    0.0000   -0.2250    0.0000 C   0  0  0  0  0  0  0  0  0  0  0  0
    0.0000   -1.0500    0.0000 C   0  0  0  0  0  0  0  0  0  0  0  0
  1  2  1  0  0  0  0
  3  2  1  0  0  0  0
  4  3  2  0  0  0  0
  5  4  1  0  0  0  0
  5  6  1  0  0  0  0
  6  7  1  0  0  0  0
  6  8  1  0  0  0  0
  6  9  1  0  0  0  0
 10  5  2  0  0  0  0
 11 10  1  0  0  0  0
  2 11  2  0  0  0  0
M  END
> <RowID>
1555

> <Original_SMILES>
CC1C=CC(=CC=1)C(C)(C)C

> <Canonical_QSARr>
CC1C=CC(=CC=1)C(C)(C)C

> <InChI_Code_QSARr>
InChI=1S/C11H16/c1-9-5-7-10(8-6-9)11(2,3)4/h5-8H,1-4H3

> <InChI Key_QSARr>
QCWXDVFBZVHKLV-UHFFFAOYSA-N

> <Salt_Solvent>


> <Salt_Solvent_ID>
0

> <Number of connected components>
1

$$$$
Molecule_1556
  Mrv2316 01072400032D          

  6  5  0  0  0  0            999 V2000
    0.8250   -1.4289    0.0000 O   0  0  0  0  0  0  0  0  0  0  0  0
    1.2375   -0.7145    0.0000 C   0  0  0  0  0  0  0  0  0  0  0  0
    2.0625   -0.7145    0.0000 C   0  0  0  0  0  0  0  0  0  0  0  0
    2.4750   -1.4289    0.0000 O   0  0  0  0  0  0  0  0  0  0  0  0
    0.8250    0.0000    0.0000 C   0  0  0  0  0  0  0  0  0  0  0  0
    0.0000    0.0000    0.0000 O   0  0  0  0  0  0  0  0  0  0  0  0
  1  2  1  0  0  0  0
  2  3  1  0  0  0  0
  3  4  1  0  0  0  0
  2  5  1  0  0  0  0
  5  6  1  0  0  0  0
M  END
> <RowID>
1556

> <Original_SMILES>
OC(CO)CO

> <Canonical_QSARr>
OC(CO)CO

> <InChI_Code_QSARr>
InChI=1S/C3H8O3/c4-1-3(6)2-5/h3-6H,1-2H2

> <InChI Key_QSARr>
PEDCQBHIVMGVHV-UHFFFAOYSA-N

> <Salt_Solvent>


> <Salt_Solvent_ID>
0

> <Number of connected components>
1

$$$$
Molecule_1557
  Mrv2316 01072400032D          

 15 14  0  0  0  0            999 V2000
    5.1414    4.6184    0.0000 C   0  0  0  0  0  0  0  0  0  0  0  0
    5.1414    3.7934    0.0000 C   0  0  0  0  0  0  0  0  0  0  0  0
    4.4270    3.3809    0.0000 O   0  0  0  0  0  0  0  0  0  0  0  0
    5.8559    3.3809    0.0000 O   0  0  0  0  0  0  0  0  0  0  0  0
    5.8559    2.5559    0.0000 C   0  0  0  0  0  0  0  0  0  0  0  0
    5.1414    2.1434    0.0000 C   0  0  0  0  0  0  0  0  0  0  0  0
    4.4270    2.5559    0.0000 O   0  0  0  0  0  0  0  0  0  0  0  0
    3.7125    2.1434    0.0000 C   0  0  0  0  0  0  0  0  0  0  0  0
    2.9980    2.5559    0.0000 C   0  0  0  0  0  0  0  0  0  0  0  0
    3.7125    1.3184    0.0000 O   0  0  0  0  0  0  0  0  0  0  0  0
    6.5704    2.1434    0.0000 C   0  0  0  0  0  0  0  0  0  0  0  0
    7.2848    2.5559    0.0000 O   0  0  0  0  0  0  0  0  0  0  0  0
    7.9993    2.1434    0.0000 C   0  0  0  0  0  0  0  0  0  0  0  0
    8.7138    2.5559    0.0000 C   0  0  0  0  0  0  0  0  0  0  0  0
    7.9993    1.3184    0.0000 O   0  0  0  0  0  0  0  0  0  0  0  0
  1  2  1  0  0  0  0
  2  3  2  0  0  0  0
  2  4  1  0  0  0  0
  4  5  1  0  0  0  0
  5  6  1  0  0  0  0
  6  7  1  0  0  0  0
  7  8  1  0  0  0  0
  8  9  1  0  0  0  0
  8 10  2  0  0  0  0
  5 11  1  0  0  0  0
 11 12  1  0  0  0  0
 12 13  1  0  0  0  0
 13 14  1  0  0  0  0
 13 15  2  0  0  0  0
M  END
> <RowID>
1557

> <Original_SMILES>
CC(=O)OC(COC(C)=O)COC(C)=O

> <Canonical_QSARr>
CC(=O)OC(COC(C)=O)COC(C)=O

> <InChI_Code_QSARr>
InChI=1S/C9H14O6/c1-6(10)13-4-9(15-8(3)12)5-14-7(2)11/h9H,4-5H2,1-3H3

> <InChI Key_QSARr>
URAYPUMNDPQOKB-UHFFFAOYSA-N

> <Salt_Solvent>


> <Salt_Solvent_ID>
0

> <Number of connected components>
1

$$$$
Molecule_1558
  Mrv2316 01072400032D          

  7  6  0  0  0  0            999 V2000
    0.8250   -0.8250    0.0000 C   0  0  0  0  0  0  0  0  0  0  0  0
    0.8250    0.0000    0.0000 N   0  3  0  0  0  0  0  0  0  0  0  0
    0.8250    0.8250    0.0000 C   0  0  0  0  0  0  0  0  0  0  0  0
    1.5395    1.2375    0.0000 C   0  0  0  0  0  0  0  0  0  0  0  0
    1.5395    2.0625    0.0000 O   0  0  0  0  0  0  0  0  0  0  0  0
    1.6500    0.0000    0.0000 C   0  0  0  0  0  0  0  0  0  0  0  0
    0.0000    0.0000    0.0000 C   0  0  0  0  0  0  0  0  0  0  0  0
  1  2  1  0  0  0  0
  2  3  1  0  0  0  0
  3  4  1  0  0  0  0
  4  5  1  0  0  0  0
  2  6  1  0  0  0  0
  2  7  1  0  0  0  0
M  CHG  1   2   1
M  END
> <RowID>
1558

> <Original_SMILES>
C[N+](C)(C)CCO.[O-]C(O)=O

> <Canonical_QSARr>
C[N+](C)(C)CCO

> <InChI_Code_QSARr>
InChI=1S/C5H14NO/c1-6(2,3)4-5-7/h7H,4-5H2,1-3H3/q+1

> <InChI Key_QSARr>
OEYIOHPDSNJKLS-UHFFFAOYSA-N

> <Salt_Solvent>
[O-]C(=O)O

> <Salt_Solvent_ID>
1779

> <Number of connected components>
2

$$$$
Molecule_1560
  Mrv2316 01072400032D          

  7  6  0  0  0  0            999 V2000
    2.4750   -0.0000    0.0000 C   0  0  0  0  0  0  0  0  0  0  0  0
    2.0625    0.7145    0.0000 O   0  0  0  0  0  0  0  0  0  0  0  0
    1.2375    0.7145    0.0000 C   0  0  0  0  0  0  0  0  0  0  0  0
    0.8250    1.4289    0.0000 O   0  0  0  0  0  0  0  0  0  0  0  0
    0.0000    1.4289    0.0000 C   0  0  0  0  0  0  0  0  0  0  0  0
    0.8250   -0.0000    0.0000 O   0  0  0  0  0  0  0  0  0  0  0  0
    0.0000   -0.0000    0.0000 C   0  0  0  0  0  0  0  0  0  0  0  0
  1  2  1  0  0  0  0
  2  3  1  0  0  0  0
  3  4  1  0  0  0  0
  4  5  1  0  0  0  0
  3  6  1  0  0  0  0
  6  7  1  0  0  0  0
M  END
> <RowID>
1560

> <Original_SMILES>
COC(OC)OC

> <Canonical_QSARr>
COC(OC)OC

> <InChI_Code_QSARr>
InChI=1S/C4H10O3/c1-5-4(6-2)7-3/h4H,1-3H3

> <InChI Key_QSARr>
PYOKUURKVVELLB-UHFFFAOYSA-N

> <Salt_Solvent>


> <Salt_Solvent_ID>
0

> <Number of connected components>
1

$$$$
Molecule_1561
  Mrv2316 01072400032D          

  7  6  0  0  0  0            999 V2000
    0.1105   -1.2375    0.0000 O   0  0  0  0  0  0  0  0  0  0  0  0
    0.8250   -0.8250    0.0000 C   0  0  0  0  0  0  0  0  0  0  0  0
    1.5395   -1.2375    0.0000 O   0  0  0  0  0  0  0  0  0  0  0  0
    0.8250   -0.0000    0.0000 C   0  0  0  0  0  0  0  0  0  0  0  0
    0.8250    0.8250    0.0000 Cl  0  0  0  0  0  0  0  0  0  0  0  0
    1.6500   -0.0000    0.0000 Cl  0  0  0  0  0  0  0  0  0  0  0  0
    0.0000   -0.0000    0.0000 Cl  0  0  0  0  0  0  0  0  0  0  0  0
  1  2  1  0  0  0  0
  2  3  2  0  0  0  0
  2  4  1  0  0  0  0
  4  5  1  0  0  0  0
  4  6  1  0  0  0  0
  4  7  1  0  0  0  0
M  END
> <RowID>
1561

> <Original_SMILES>
[Na+].[O-]C(=O)C(Cl)(Cl)Cl

> <Canonical_QSARr>
OC(=O)C(Cl)(Cl)Cl

> <InChI_Code_QSARr>
InChI=1S/C2HCl3O2/c3-2(4,5)1(6)7/h(H,6,7)

> <InChI Key_QSARr>
YNJBWRMUSHSURL-UHFFFAOYSA-N

> <Salt_Solvent>
[Na+]

> <Salt_Solvent_ID>
110

> <Number of connected components>
2

$$$$
Molecule_1562
  Mrv2316 01072400032D          

 15 15  0  0  0  0            999 V2000
    0.7145   -4.5925    0.0000 C   0  0  0  0  0  0  0  0  0  0  0  0
    1.4289   -4.1800    0.0000 C   0  0  0  0  0  0  0  0  0  0  0  0
    1.4289   -3.3550    0.0000 C   0  0  0  0  0  0  0  0  0  0  0  0
    2.1434   -4.5925    0.0000 C   0  0  0  0  0  0  0  0  0  0  0  0
    2.1434   -5.4175    0.0000 O   0  0  0  0  0  0  0  0  0  0  0  0
    2.8579   -4.1800    0.0000 O   0  0  0  0  0  0  0  0  0  0  0  0
    3.5723   -4.5925    0.0000 C   0  0  0  0  0  0  0  0  0  0  0  0
    4.2868   -4.1800    0.0000 C   0  0  0  0  0  0  0  0  0  0  0  0
    5.0013   -4.5925    0.0000 O   0  0  0  0  0  0  0  0  0  0  0  0
    5.7158   -4.1800    0.0000 C   0  0  0  0  0  0  0  0  0  0  0  0
    6.4302   -4.5925    0.0000 C   0  0  0  0  0  0  0  0  0  0  0  0
    7.1447   -4.1800    0.0000 C   0  0  0  0  0  0  0  0  0  0  0  0
    7.1447   -3.3550    0.0000 C   0  0  0  0  0  0  0  0  0  0  0  0
    6.4302   -2.9425    0.0000 C   0  0  0  0  0  0  0  0  0  0  0  0
    5.7158   -3.3550    0.0000 C   0  0  0  0  0  0  0  0  0  0  0  0
  1  2  1  0  0  0  0
  2  3  1  0  0  0  0
  2  4  1  0  0  0  0
  4  5  2  0  0  0  0
  4  6  1  0  0  0  0
  6  7  1  0  0  0  0
  7  8  1  0  0  0  0
  8  9  1  0  0  0  0
  9 10  1  0  0  0  0
 11 10  1  0  0  0  0
 12 11  2  0  0  0  0
 13 12  1  0  0  0  0
 14 13  2  0  0  0  0
 15 14  1  0  0  0  0
 10 15  2  0  0  0  0
M  END
> <RowID>
1562

> <Original_SMILES>
CC(C)C(=O)OCCOC1C=CC=CC=1

> <Canonical_QSARr>
CC(C)C(=O)OCCOC1C=CC=CC=1

> <InChI_Code_QSARr>
InChI=1S/C12H16O3/c1-10(2)12(13)15-9-8-14-11-6-4-3-5-7-11/h3-7,10H,8-9H2,1-2H3

> <InChI Key_QSARr>
MJTPMXWJHPOWGH-UHFFFAOYSA-N

> <Salt_Solvent>


> <Salt_Solvent_ID>
0

> <Number of connected components>
1

$$$$
Molecule_1564
  Mrv2316 01072400032D          

 10 10  0  0  0  0            999 V2000
   -1.0717    1.0313    0.0000 C   0  0  0  0  0  0  0  0  0  0  0  0
   -0.3572    0.6188    0.0000 C   0  0  0  0  0  0  0  0  0  0  0  0
   -0.3572   -0.2063    0.0000 C   0  0  0  0  0  0  0  0  0  0  0  0
    0.3572   -0.6187    0.0000 C   0  0  0  0  0  0  0  0  0  0  0  0
    1.0717   -0.2062    0.0000 C   0  0  0  0  0  0  0  0  0  0  0  0
    1.0717    0.6188    0.0000 C   0  0  0  0  0  0  0  0  0  0  0  0
    0.3572    1.0313    0.0000 C   0  0  0  0  0  0  0  0  0  0  0  0
    0.3572    1.8563    0.0000 N   0  3  0  0  0  0  0  0  0  0  0  0
   -0.3572    2.2688    0.0000 O   0  5  0  0  0  0  0  0  0  0  0  0
    1.0717    2.2687    0.0000 O   0  0  0  0  0  0  0  0  0  0  0  0
  1  2  1  0  0  0  0
  3  2  2  0  0  0  0
  4  3  1  0  0  0  0
  5  4  2  0  0  0  0
  6  5  1  0  0  0  0
  7  6  2  0  0  0  0
  2  7  1  0  0  0  0
  7  8  1  0  0  0  0
  8  9  1  0  0  0  0
  8 10  2  0  0  0  0
M  CHG  2   8   1   9  -1
M  END
> <RowID>
1564

> <Original_SMILES>
CC1=CC=CC=C1[N+]([O-])=O

> <Canonical_QSARr>
CC1=CC=CC=C1[N+]([O-])=O

> <InChI_Code_QSARr>
InChI=1S/C7H7NO2/c1-6-4-2-3-5-7(6)8(9)10/h2-5H,1H3

> <InChI Key_QSARr>
PLAZTCDQAHEYBI-UHFFFAOYSA-N

> <Salt_Solvent>


> <Salt_Solvent_ID>
0

> <Number of connected components>
1

$$$$
Molecule_1565
  Mrv2316 01072400032D          

 62 69  0  0  0  0            999 V2000
    9.8413   -2.3819    0.0000 O   0  0  0  0  0  0  0  0  0  0  0  0
    9.1268   -2.7944    0.0000 S   0  0  0  0  0  0  0  0  0  0  0  0
    9.5393   -3.5088    0.0000 O   0  0  0  0  0  0  0  0  0  0  0  0
    8.7143   -2.0799    0.0000 O   0  0  0  0  0  0  0  0  0  0  0  0
    8.4123   -3.2069    0.0000 C   0  0  0  0  0  0  0  0  0  0  0  0
    7.6979   -2.7944    0.0000 C   0  0  0  0  0  0  0  0  0  0  0  0
    7.6979   -1.9694    0.0000 C   0  0  0  0  0  0  0  0  0  0  0  0
    8.4123   -1.5569    0.0000 C   0  0  0  0  0  0  0  0  0  0  0  0
    8.4123   -0.7319    0.0000 C   0  0  0  0  0  0  0  0  0  0  0  0
    9.1268   -0.3194    0.0000 C   0  0  0  0  0  0  0  0  0  0  0  0
    9.8413   -0.7319    0.0000 S   0  0  0  0  0  0  0  0  0  0  0  0
   10.5557   -1.1444    0.0000 O   0  0  0  0  0  0  0  0  0  0  0  0
   10.2538   -0.0174    0.0000 O   0  0  0  0  0  0  0  0  0  0  0  0
    9.4288   -1.4463    0.0000 O   0  0  0  0  0  0  0  0  0  0  0  0
    9.1268    0.5056    0.0000 C   0  0  0  0  0  0  0  0  0  0  0  0
    8.4123    0.9181    0.0000 C   0  0  0  0  0  0  0  0  0  0  0  0
    8.4123    1.7431    0.0000 N   0  0  0  0  0  0  0  0  0  0  0  0
    7.6979    2.1556    0.0000 C   0  0  0  0  0  0  0  0  0  0  0  0
    7.6979    2.9806    0.0000 N   0  0  0  0  0  0  0  0  0  0  0  0
    6.9834    3.3931    0.0000 C   0  0  0  0  0  0  0  0  0  0  0  0
    6.9834    4.2181    0.0000 N   0  0  0  0  0  0  0  0  0  0  0  0
    7.6979    4.6306    0.0000 C   0  0  0  0  0  0  0  0  0  0  0  0
    7.6979    5.4556    0.0000 C   0  0  0  0  0  0  0  0  0  0  0  0
    6.9834    5.8681    0.0000 O   0  0  0  0  0  0  0  0  0  0  0  0
    6.2689    5.4556    0.0000 C   0  0  0  0  0  0  0  0  0  0  0  0
    6.2689    4.6306    0.0000 C   0  0  0  0  0  0  0  0  0  0  0  0
    6.2689    2.9806    0.0000 N   0  0  0  0  0  0  0  0  0  0  0  0
    6.2689    2.1556    0.0000 C   0  0  0  0  0  0  0  0  0  0  0  0
    5.5544    1.7431    0.0000 N   0  0  0  0  0  0  0  0  0  0  0  0
    4.8400    2.1556    0.0000 C   0  0  0  0  0  0  0  0  0  0  0  0
    4.8400    2.9806    0.0000 C   0  0  0  0  0  0  0  0  0  0  0  0
    4.1255    3.3931    0.0000 C   0  0  0  0  0  0  0  0  0  0  0  0
    3.4110    2.9806    0.0000 C   0  0  0  0  0  0  0  0  0  0  0  0
    3.4110    2.1556    0.0000 C   0  0  0  0  0  0  0  0  0  0  0  0
    4.1255    1.7431    0.0000 C   0  0  0  0  0  0  0  0  0  0  0  0
    6.9834    1.7431    0.0000 N   0  0  0  0  0  0  0  0  0  0  0  0
    7.6979    0.5056    0.0000 C   0  0  0  0  0  0  0  0  0  0  0  0
    7.6979   -0.3194    0.0000 C   0  0  0  0  0  0  0  0  0  0  0  0
    6.9834   -3.2069    0.0000 C   0  0  0  0  0  0  0  0  0  0  0  0
    6.9834   -4.0319    0.0000 C   0  0  0  0  0  0  0  0  0  0  0  0
    7.6979   -4.4444    0.0000 C   0  0  0  0  0  0  0  0  0  0  0  0
    7.6979   -5.2694    0.0000 N   0  0  0  0  0  0  0  0  0  0  0  0
    6.9834   -5.6819    0.0000 C   0  0  0  0  0  0  0  0  0  0  0  0
    6.2689   -5.2694    0.0000 N   0  0  0  0  0  0  0  0  0  0  0  0
    5.5544   -5.6819    0.0000 C   0  0  0  0  0  0  0  0  0  0  0  0
    4.8400   -5.2694    0.0000 N   0  0  0  0  0  0  0  0  0  0  0  0
    4.8400   -4.4444    0.0000 C   0  0  0  0  0  0  0  0  0  0  0  0
    4.1255   -4.0319    0.0000 C   0  0  0  0  0  0  0  0  0  0  0  0
    3.4110   -4.4444    0.0000 O   0  0  0  0  0  0  0  0  0  0  0  0
    3.4110   -5.2694    0.0000 C   0  0  0  0  0  0  0  0  0  0  0  0
    4.1255   -5.6819    0.0000 C   0  0  0  0  0  0  0  0  0  0  0  0
    5.5544   -6.5069    0.0000 N   0  0  0  0  0  0  0  0  0  0  0  0
    6.2689   -6.9194    0.0000 C   0  0  0  0  0  0  0  0  0  0  0  0
    6.2689   -7.7444    0.0000 N   0  0  0  0  0  0  0  0  0  0  0  0
    6.9834   -8.1569    0.0000 C   0  0  0  0  0  0  0  0  0  0  0  0
    6.9834   -8.9819    0.0000 C   0  0  0  0  0  0  0  0  0  0  0  0
    7.6979   -9.3944    0.0000 C   0  0  0  0  0  0  0  0  0  0  0  0
    8.4123   -8.9819    0.0000 C   0  0  0  0  0  0  0  0  0  0  0  0
    8.4123   -8.1569    0.0000 C   0  0  0  0  0  0  0  0  0  0  0  0
    7.6979   -7.7444    0.0000 C   0  0  0  0  0  0  0  0  0  0  0  0
    6.9834   -6.5069    0.0000 N   0  0  0  0  0  0  0  0  0  0  0  0
    8.4123   -4.0319    0.0000 C   0  0  0  0  0  0  0  0  0  0  0  0
  1  2  1  0  0  0  0
  2  3  2  0  0  0  0
  2  4  2  0  0  0  0
  2  5  1  0  0  0  0
  6  5  2  0  0  0  0
  7  6  1  4  0  0  0
  7  8  2  0  0  0  0
  8  9  1  0  0  0  0
 10  9  2  0  0  0  0
 10 11  1  0  0  0  0
 11 12  1  0  0  0  0
 11 13  2  0  0  0  0
 11 14  2  0  0  0  0
 15 10  1  0  0  0  0
 16 15  2  0  0  0  0
 16 17  1  0  0  0  0
 17 18  1  0  0  0  0
 19 18  2  0  0  0  0
 20 19  1  0  0  0  0
 20 21  1  0  0  0  0
 22 21  1  0  0  0  0
 23 22  1  0  0  0  0
 24 23  1  0  0  0  0
 25 24  1  0  0  0  0
 26 25  1  0  0  0  0
 21 26  1  0  0  0  0
 27 20  2  0  0  0  0
 28 27  1  0  0  0  0
 28 29  1  0  0  0  0
 29 30  1  0  0  0  0
 31 30  2  0  0  0  0
 32 31  1  0  0  0  0
 33 32  2  0  0  0  0
 34 33  1  0  0  0  0
 35 34  2  0  0  0  0
 30 35  1  0  0  0  0
 36 28  2  0  0  0  0
 18 36  1  0  0  0  0
 37 16  1  0  0  0  0
 38 37  2  0  0  0  0
  9 38  1  0  0  0  0
 39  6  1  0  0  0  0
 40 39  2  0  0  0  0
 41 40  1  0  0  0  0
 41 42  1  0  0  0  0
 42 43  1  0  0  0  0
 44 43  2  0  0  0  0
 45 44  1  0  0  0  0
 45 46  1  0  0  0  0
 47 46  1  0  0  0  0
 48 47  1  0  0  0  0
 49 48  1  0  0  0  0
 50 49  1  0  0  0  0
 51 50  1  0  0  0  0
 46 51  1  0  0  0  0
 52 45  2  0  0  0  0
 53 52  1  0  0  0  0
 53 54  1  0  0  0  0
 54 55  1  0  0  0  0
 56 55  2  0  0  0  0
 57 56  1  0  0  0  0
 58 57  2  0  0  0  0
 59 58  1  0  0  0  0
 60 59  2  0  0  0  0
 55 60  1  0  0  0  0
 61 53  2  0  0  0  0
 43 61  1  0  0  0  0
 62 41  2  0  0  0  0
  5 62  1  0  0  0  0
M  END
> <RowID>
1565

> <Original_SMILES>
[Na+].[Na+].[O-]S(=O)(=O)C1=CC(=CC=C1C=CC1=CC=C(C=C1S([O-])(=O)=O)NC1=NC(NC2C=CC=CC=2)=NC(=N1)N1CCOCC1)NC1=NC(NC2C=CC=CC=2)=NC(=N1)N1CCOCC1

> <Canonical_QSARr>
OS(=O)(=O)C1C=C(C=CC=1C=CC1C=CC(=CC=1S(O)(=O)=O)NC1N=C(NC2C=CC=CC=2)N=C(N=1)N1CCOCC1)NC1N=C(NC2C=CC=CC=2)N=C(N=1)N1CCOCC1

> <InChI_Code_QSARr>
InChI=1S/C40H40N12O8S2/c53-61(54,55)33-25-31(43-37-45-35(41-29-7-3-1-4-8-29)47-39(49-37)51-17-21-59-22-18-51)15-13-27(33)11-12-28-14-16-32(26-34(28)62(56,57)58)44-38-46-36(42-30-9-5-2-6-10-30)48-40(50-38)52-19-23-60-24-20-52/h1-16,25-26H,17-24H2,(H,53,54,55)(H,56,57,58)(H2,41,43,45,47,49)(H2,42,44,46,48,50)

> <InChI Key_QSARr>
YGUMVDWOQQJBGA-UHFFFAOYSA-N

> <Salt_Solvent>
[Na+]

> <Salt_Solvent_ID>
110

> <Number of connected components>
3

$$$$
Molecule_1566
  Mrv2316 01072400032D          

 27 26  0  0  0  0            999 V2000
    3.2408   -3.0789    0.0000 O   0  0  0  0  0  0  0  0  0  0  0  0
    2.5263   -2.6664    0.0000 C   0  0  0  0  0  0  0  0  0  0  0  0
    2.5263   -1.8414    0.0000 O   0  0  0  0  0  0  0  0  0  0  0  0
    1.8118   -3.0789    0.0000 C   0  0  0  0  0  0  0  0  0  0  0  0
    1.0974   -2.6664    0.0000 N   0  0  0  0  0  0  0  0  0  0  0  0
    0.3829   -3.0789    0.0000 C   0  0  0  0  0  0  0  0  0  0  0  0
   -0.3316   -2.6664    0.0000 C   0  0  0  0  0  0  0  0  0  0  0  0
   -1.0460   -3.0789    0.0000 N   0  0  0  0  0  0  0  0  0  0  0  0
   -1.0460   -3.9039    0.0000 C   0  0  0  0  0  0  0  0  0  0  0  0
   -0.3316   -4.3164    0.0000 C   0  0  0  0  0  0  0  0  0  0  0  0
    0.3829   -3.9039    0.0000 O   0  0  0  0  0  0  0  0  0  0  0  0
   -0.3316   -5.1414    0.0000 O   0  0  0  0  0  0  0  0  0  0  0  0
   -1.7605   -2.6664    0.0000 C   0  0  0  0  0  0  0  0  0  0  0  0
   -2.4750   -3.0789    0.0000 C   0  0  0  0  0  0  0  0  0  0  0  0
   -3.1895   -2.6664    0.0000 N   0  0  0  0  0  0  0  0  0  0  0  0
   -3.9039   -3.0789    0.0000 C   0  0  0  0  0  0  0  0  0  0  0  0
   -4.6184   -2.6664    0.0000 C   0  0  0  0  0  0  0  0  0  0  0  0
   -5.3329   -3.0789    0.0000 O   0  0  0  0  0  0  0  0  0  0  0  0
   -4.6184   -1.8414    0.0000 O   0  0  0  0  0  0  0  0  0  0  0  0
   -3.1895   -1.8414    0.0000 C   0  0  0  0  0  0  0  0  0  0  0  0
   -2.4750   -1.4289    0.0000 C   0  0  0  0  0  0  0  0  0  0  0  0
   -2.4750   -0.6039    0.0000 O   0  0  0  0  0  0  0  0  0  0  0  0
   -1.7605   -1.8414    0.0000 O   0  0  0  0  0  0  0  0  0  0  0  0
    1.0974   -1.8414    0.0000 C   0  0  0  0  0  0  0  0  0  0  0  0
    0.3829   -1.4289    0.0000 C   0  0  0  0  0  0  0  0  0  0  0  0
   -0.3316   -1.8414    0.0000 O   0  0  0  0  0  0  0  0  0  0  0  0
    0.3829   -0.6039    0.0000 O   0  0  0  0  0  0  0  0  0  0  0  0
  1  2  1  0  0  0  0
  2  3  2  0  0  0  0
  2  4  1  0  0  0  0
  4  5  1  0  0  0  0
  5  6  1  0  0  0  0
  6  7  1  0  0  0  0
  7  8  1  0  0  0  0
  8  9  1  0  0  0  0
  9 10  1  0  0  0  0
 10 11  1  0  0  0  0
 10 12  2  0  0  0  0
  8 13  1  0  0  0  0
 13 14  1  0  0  0  0
 14 15  1  0  0  0  0
 15 16  1  0  0  0  0
 16 17  1  0  0  0  0
 17 18  1  0  0  0  0
 17 19  2  0  0  0  0
 15 20  1  0  0  0  0
 20 21  1  0  0  0  0
 21 22  1  0  0  0  0
 21 23  2  0  0  0  0
  5 24  1  0  0  0  0
 24 25  1  0  0  0  0
 25 26  1  0  0  0  0
 25 27  2  0  0  0  0
M  END
> <RowID>
1566

> <Original_SMILES>
[K+].[K+].[K+].[K+].[K+].[K+].[K+].[K+].[K+].[K+].[K+].[K+].[K+].[K+].[K+].[K+].[K+].[K+].[K+].[K+].[K+].[K+].[K+].[K+].[K+].[O-]C(=O)CN(CCN(CC([O-])=O)CC([O-])=O)CCN(CC([O-])=O)CC([O-])=O

> <Canonical_QSARr>
OC(=O)CN(CCN(CC(O)=O)CC(O)=O)CCN(CC(O)=O)CC(O)=O

> <InChI_Code_QSARr>
InChI=1S/C14H23N3O10/c18-10(19)5-15(1-3-16(6-11(20)21)7-12(22)23)2-4-17(8-13(24)25)9-14(26)27/h1-9H2,(H,18,19)(H,20,21)(H,22,23)(H,24,25)(H,26,27)

> <InChI Key_QSARr>
QPCDCPDFJACHGM-UHFFFAOYSA-N

> <Salt_Solvent>
[K+]

> <Salt_Solvent_ID>
190

> <Number of connected components>
26

$$$$
Molecule_1567
  Mrv2316 01072400032D          

 12 12  0  0  0  0            999 V2000
    0.1829    3.1895    0.0000 C   0  0  0  0  0  0  0  0  0  0  0  0
    0.5954    2.4750    0.0000 C   0  0  0  0  0  0  0  0  0  0  0  0
    1.0079    1.7605    0.0000 C   0  0  0  0  0  0  0  0  0  0  0  0
    1.3099    2.8875    0.0000 C   0  0  0  0  0  0  0  0  0  0  0  0
    1.3099    3.7125    0.0000 O   0  0  0  0  0  0  0  0  0  0  0  0
   -0.1191    2.0625    0.0000 C   0  0  0  0  0  0  0  0  0  0  0  0
   -0.1191    1.2375    0.0000 C   0  0  0  0  0  0  0  0  0  0  0  0
   -0.8336    0.8250    0.0000 C   0  0  0  0  0  0  0  0  0  0  0  0
   -0.8336   -0.0000    0.0000 C   0  0  0  0  0  0  0  0  0  0  0  0
   -0.1191   -0.4125    0.0000 C   0  0  0  0  0  0  0  0  0  0  0  0
    0.5954    0.0000    0.0000 C   0  0  0  0  0  0  0  0  0  0  0  0
    0.5954    0.8250    0.0000 C   0  0  0  0  0  0  0  0  0  0  0  0
  1  2  1  0  0  0  0
  2  3  1  0  0  0  0
  2  4  1  0  0  0  0
  4  5  1  0  0  0  0
  2  6  1  0  0  0  0
  6  7  1  0  0  0  0
  8  7  1  0  0  0  0
  9  8  2  0  0  0  0
 10  9  1  0  0  0  0
 11 10  2  0  0  0  0
 12 11  1  0  0  0  0
  7 12  2  0  0  0  0
M  END
> <RowID>
1567

> <Original_SMILES>
CC(C)(CO)CC1C=CC=CC=1

> <Canonical_QSARr>
CC(C)(CO)CC1C=CC=CC=1

> <InChI_Code_QSARr>
InChI=1S/C11H16O/c1-11(2,9-12)8-10-6-4-3-5-7-10/h3-7,12H,8-9H2,1-2H3

> <InChI Key_QSARr>
VNGAHMPMLRTSLF-UHFFFAOYSA-N

> <Salt_Solvent>


> <Salt_Solvent_ID>
0

> <Number of connected components>
1

$$$$
Molecule_1568
  Mrv2316 01072400032D          

 12 13  0  0  0  0            999 V2000
   -0.0000    0.8250    0.0000 O   0  0  0  0  0  0  0  0  0  0  0  0
   -0.0000    0.0000    0.0000 C   0  0  0  0  0  0  0  0  0  0  0  0
   -0.7145   -0.4125    0.0000 C   0  0  0  0  0  0  0  0  0  0  0  0
   -0.7145   -1.2375    0.0000 C   0  0  0  0  0  0  0  0  0  0  0  0
   -0.0000   -1.6500    0.0000 C   0  0  0  0  0  0  0  0  0  0  0  0
    0.7145   -1.2375    0.0000 C   0  0  0  0  0  0  0  0  0  0  0  0
    0.7145   -0.4125    0.0000 C   0  0  0  0  0  0  0  0  0  0  0  0
    1.4289    0.0000    0.0000 C   0  0  0  0  0  0  0  0  0  0  0  0
    2.1434   -0.4125    0.0000 C   0  0  0  0  0  0  0  0  0  0  0  0
    2.1434   -1.2375    0.0000 C   0  0  0  0  0  0  0  0  0  0  0  0
    1.4289   -1.6500    0.0000 C   0  0  0  0  0  0  0  0  0  0  0  0
    1.4289   -2.4750    0.0000 O   0  0  0  0  0  0  0  0  0  0  0  0
  1  2  1  0  0  0  0
  3  2  1  0  0  0  0
  4  3  2  0  0  0  0
  5  4  1  0  0  0  0
  6  5  2  0  0  0  0
  6  7  1  0  0  0  0
  2  7  2  0  0  0  0
  7  8  1  0  0  0  0
  8  9  2  0  0  0  0
  9 10  1  0  0  0  0
 10 11  2  0  0  0  0
 11  6  1  0  0  0  0
 11 12  1  0  0  0  0
M  END
> <RowID>
1568

> <Original_SMILES>
OC1C=CC=C2C=1C=CC=C2O

> <Canonical_QSARr>
OC1C=CC=C2C=1C=CC=C2O

> <InChI_Code_QSARr>
InChI=1S/C10H8O2/c11-9-5-1-3-7-8(9)4-2-6-10(7)12/h1-6,11-12H

> <InChI Key_QSARr>
BOKGTLAJQHTOKE-UHFFFAOYSA-N

> <Salt_Solvent>


> <Salt_Solvent_ID>
0

> <Number of connected components>
1

$$$$
Molecule_1569
  Mrv2316 01072400032D          

 37 36  0  0  0  0            999 V2000
   12.1836    7.8592    0.0000 C   0  0  0  0  0  0  0  0  0  0  0  0
   12.8980    8.2717    0.0000 C   0  0  0  0  0  0  0  0  0  0  0  0
   13.6125    7.8592    0.0000 C   0  0  0  0  0  0  0  0  0  0  0  0
   14.3270    8.2717    0.0000 C   0  0  0  0  0  0  0  0  0  0  0  0
   15.0414    7.8592    0.0000 C   0  0  0  0  0  0  0  0  0  0  0  0
   15.7559    8.2717    0.0000 C   0  0  0  0  0  0  0  0  0  0  0  0
   16.4704    7.8592    0.0000 C   0  0  0  0  0  0  0  0  0  0  0  0
   17.1848    8.2717    0.0000 C   0  0  0  0  0  0  0  0  0  0  0  0
   17.8993    7.8592    0.0000 C   0  0  0  0  0  0  0  0  0  0  0  0
   18.6138    8.2717    0.0000 C   0  0  0  0  0  0  0  0  0  0  0  0
   19.3283    7.8592    0.0000 C   0  0  0  0  0  0  0  0  0  0  0  0
   20.0427    8.2717    0.0000 C   0  0  0  0  0  0  0  0  0  0  0  0
   20.7572    7.8592    0.0000 C   0  0  0  0  0  0  0  0  0  0  0  0
   21.4717    8.2717    0.0000 C   0  0  0  0  0  0  0  0  0  0  0  0
   22.1861    7.8592    0.0000 C   0  0  0  0  0  0  0  0  0  0  0  0
   22.9006    8.2717    0.0000 C   0  0  0  0  0  0  0  0  0  0  0  0
   23.6151    7.8592    0.0000 O   0  0  0  0  0  0  0  0  0  0  0  0
   24.3296    8.2717    0.0000 C   0  0  0  0  0  0  0  0  0  0  0  0
   24.3296    9.0967    0.0000 O   0  0  0  0  0  0  0  0  0  0  0  0
   25.0440    7.8592    0.0000 C   0  0  0  0  0  0  0  0  0  0  0  0
   25.7585    8.2717    0.0000 C   0  0  0  0  0  0  0  0  0  0  0  0
   26.4730    7.8592    0.0000 C   0  0  0  0  0  0  0  0  0  0  0  0
   27.1874    8.2717    0.0000 C   0  0  0  0  0  0  0  0  0  0  0  0
   27.9019    7.8592    0.0000 C   0  0  0  0  0  0  0  0  0  0  0  0
   28.6164    8.2717    0.0000 C   0  0  0  0  0  0  0  0  0  0  0  0
   29.3309    7.8592    0.0000 C   0  0  0  0  0  0  0  0  0  0  0  0
   30.0453    8.2717    0.0000 C   0  0  0  0  0  0  0  0  0  0  0  0
   30.7598    7.8592    0.0000 C   0  0  0  0  0  0  0  0  0  0  0  0
   31.4743    8.2717    0.0000 C   0  0  0  0  0  0  0  0  0  0  0  0
   31.4743    9.0967    0.0000 C   0  0  0  0  0  0  0  0  0  0  0  0
   30.7598    9.5092    0.0000 O   0  0  0  0  0  0  0  0  0  0  0  0
   32.1887    9.5092    0.0000 C   0  0  0  0  0  0  0  0  0  0  0  0
   32.1887   10.3342    0.0000 C   0  0  0  0  0  0  0  0  0  0  0  0
   32.9032   10.7467    0.0000 C   0  0  0  0  0  0  0  0  0  0  0  0
   32.9032   11.5717    0.0000 C   0  0  0  0  0  0  0  0  0  0  0  0
   33.6177   11.9842    0.0000 C   0  0  0  0  0  0  0  0  0  0  0  0
   33.6177   12.8092    0.0000 C   0  0  0  0  0  0  0  0  0  0  0  0
  1  2  1  0  0  0  0
  2  3  1  0  0  0  0
  3  4  1  0  0  0  0
  4  5  1  0  0  0  0
  5  6  1  0  0  0  0
  6  7  1  0  0  0  0
  7  8  1  0  0  0  0
  8  9  1  0  0  0  0
  9 10  1  0  0  0  0
 10 11  1  0  0  0  0
 11 12  1  0  0  0  0
 12 13  1  0  0  0  0
 13 14  1  0  0  0  0
 14 15  1  0  0  0  0
 15 16  1  0  0  0  0
 16 17  1  0  0  0  0
 17 18  1  0  0  0  0
 18 19  2  0  0  0  0
 18 20  1  0  0  0  0
 20 21  1  0  0  0  0
 21 22  1  0  0  0  0
 22 23  1  0  0  0  0
 23 24  1  0  0  0  0
 24 25  1  0  0  0  0
 25 26  1  0  0  0  0
 27 26  1  4  0  0  0
 27 28  2  0  0  0  0
 28 29  1  0  0  0  0
 29 30  1  0  0  0  0
 30 31  1  0  0  0  0
 30 32  1  0  0  0  0
 32 33  1  0  0  0  0
 33 34  1  0  0  0  0
 34 35  1  0  0  0  0
 35 36  1  0  0  0  0
 36 37  1  0  0  0  0
M  END
> <RowID>
1569

> <Original_SMILES>
CCCCCCCCCCCCCCCCOC(=O)CCCCCCCC=CCC(O)CCCCCC

> <Canonical_QSARr>
CCCCCCCCCCCCCCCCOC(=O)CCCCCCCC=CCC(O)CCCCCC

> <InChI_Code_QSARr>
InChI=1S/C34H66O3/c1-3-5-7-9-10-11-12-13-14-15-18-21-24-28-32-37-34(36)31-27-23-20-17-16-19-22-26-30-33(35)29-25-8-6-4-2/h22,26,33,35H,3-21,23-25,27-32H2,1-2H3

> <InChI Key_QSARr>
XAMHKORMKJIEFW-UHFFFAOYSA-N

> <Salt_Solvent>


> <Salt_Solvent_ID>
0

> <Number of connected components>
1

$$$$
Molecule_1570
  Mrv2316 01072400032D          

 10 10  0  0  0  0            999 V2000
    0.7145   -1.2375    0.0000 C   0  0  0  0  0  0  0  0  0  0  0  0
    0.7145   -0.4125    0.0000 C   0  0  0  0  0  0  0  0  0  0  0  0
    1.4289    0.0000    0.0000 C   0  0  0  0  0  0  0  0  0  0  0  0
    1.4289    0.8250    0.0000 C   0  0  0  0  0  0  0  0  0  0  0  0
    0.7145    1.2375    0.0000 C   0  0  0  0  0  0  0  0  0  0  0  0
    0.7145    2.0625    0.0000 C   0  0  0  0  0  0  0  0  0  0  0  0
   -0.0000    0.8250    0.0000 C   0  0  0  0  0  0  0  0  0  0  0  0
   -0.7145    1.2375    0.0000 C   0  0  0  0  0  0  0  0  0  0  0  0
   -0.0000    0.0000    0.0000 C   0  0  0  0  0  0  0  0  0  0  0  0
   -0.7145   -0.4125    0.0000 O   0  0  0  0  0  0  0  0  0  0  0  0
  1  2  1  0  0  0  0
  3  2  2  0  0  0  0
  4  3  1  0  0  0  0
  5  4  1  0  0  0  0
  5  6  1  0  0  0  0
  7  5  1  0  0  0  0
  7  8  1  0  0  0  0
  9  7  1  0  0  0  0
  2  9  1  0  0  0  0
  9 10  2  0  0  0  0
M  END
> <RowID>
1570

> <Original_SMILES>
CC1=CCC(C)C(C)C1=O

> <Canonical_QSARr>
CC1=CCC(C)C(C)C1=O

> <InChI_Code_QSARr>
InChI=1S/C9H14O/c1-6-4-5-7(2)9(10)8(6)3/h5-6,8H,4H2,1-3H3

> <InChI Key_QSARr>
QAQCUBLNHBKTRM-UHFFFAOYSA-N

> <Salt_Solvent>


> <Salt_Solvent_ID>
0

> <Number of connected components>
1

$$$$
Molecule_1571
  Mrv2316 01072400032D          

 29 31  0  0  0  0            999 V2000
    2.0449   -5.3625    0.0000 N   0  0  0  0  0  0  0  0  0  0  0  0
    1.3304   -4.9500    0.0000 C   0  0  0  0  0  0  0  0  0  0  0  0
    1.3304   -4.1250    0.0000 C   0  0  0  0  0  0  0  0  0  0  0  0
    0.6159   -3.7125    0.0000 C   0  0  0  0  0  0  0  0  0  0  0  0
    0.6159   -2.8875    0.0000 C   0  0  0  0  0  0  0  0  0  0  0  0
   -0.0986   -2.4750    0.0000 O   0  0  0  0  0  0  0  0  0  0  0  0
    1.3304   -2.4750    0.0000 N   0  0  0  0  0  0  0  0  0  0  0  0
    1.3304   -1.6500    0.0000 C   0  0  0  0  0  0  0  0  0  0  0  0
    0.6159   -1.2375    0.0000 C   0  0  0  0  0  0  0  0  0  0  0  0
    0.6159   -0.4125    0.0000 C   0  0  0  0  0  0  0  0  0  0  0  0
    1.3304   -0.0000    0.0000 C   0  0  0  0  0  0  0  0  0  0  0  0
    1.3304    0.8250    0.0000 S   0  0  0  0  0  0  0  0  0  0  0  0
    1.3304    1.6500    0.0000 O   0  0  0  0  0  0  0  0  0  0  0  0
    2.1554    0.8250    0.0000 O   0  0  0  0  0  0  0  0  0  0  0  0
    0.5054    0.8250    0.0000 O   0  0  0  0  0  0  0  0  0  0  0  0
    2.0449   -0.4125    0.0000 C   0  0  0  0  0  0  0  0  0  0  0  0
    2.7593    0.0000    0.0000 C   0  0  0  0  0  0  0  0  0  0  0  0
    3.4738   -0.4125    0.0000 C   0  0  0  0  0  0  0  0  0  0  0  0
    3.4738   -1.2375    0.0000 C   0  0  0  0  0  0  0  0  0  0  0  0
    2.7593   -1.6500    0.0000 C   0  0  0  0  0  0  0  0  0  0  0  0
    2.7593   -2.4750    0.0000 O   0  0  0  0  0  0  0  0  0  0  0  0
    2.0449   -1.2375    0.0000 C   0  0  0  0  0  0  0  0  0  0  0  0
    4.1883   -0.0000    0.0000 S   0  0  0  0  0  0  0  0  0  0  0  0
    4.9027    0.4125    0.0000 O   0  0  0  0  0  0  0  0  0  0  0  0
    4.6008   -0.7145    0.0000 O   0  0  0  0  0  0  0  0  0  0  0  0
    3.7758    0.7145    0.0000 O   0  0  0  0  0  0  0  0  0  0  0  0
   -0.0986   -4.1250    0.0000 C   0  0  0  0  0  0  0  0  0  0  0  0
   -0.0986   -4.9500    0.0000 C   0  0  0  0  0  0  0  0  0  0  0  0
    0.6159   -5.3625    0.0000 C   0  0  0  0  0  0  0  0  0  0  0  0
  1  2  1  0  0  0  0
  3  2  1  0  0  0  0
  4  3  2  0  0  0  0
  4  5  1  0  0  0  0
  5  6  1  0  0  0  0
  5  7  2  0  0  0  0
  7  8  1  4  0  0  0
  9  8  1  0  0  0  0
 10  9  2  0  0  0  0
 11 10  1  0  0  0  0
 11 12  1  0  0  0  0
 12 13  1  0  0  0  0
 12 14  2  0  0  0  0
 12 15  2  0  0  0  0
 16 11  2  0  0  0  0
 16 17  1  0  0  0  0
 17 18  2  0  0  0  0
 18 19  1  0  0  0  0
 19 20  2  0  0  0  0
 20 21  1  0  0  0  0
 20 22  1  0  0  0  0
  8 22  2  0  0  0  0
 22 16  1  0  0  0  0
 18 23  1  0  0  0  0
 23 24  1  0  0  0  0
 23 25  2  0  0  0  0
 23 26  2  0  0  0  0
 27  4  1  0  0  0  0
 28 27  2  0  0  0  0
 29 28  1  0  0  0  0
  2 29  2  0  0  0  0
M  END
> <RowID>
1571

> <Original_SMILES>
NC1C=C(C=CC=1)C(O)=NC1C=CC(=C2C=C(C=C(O)C=12)S(O)(=O)=O)S(O)(=O)=O

> <Canonical_QSARr>
NC1C=C(C=CC=1)C(O)=NC1C=CC(=C2C=C(C=C(O)C=12)S(O)(=O)=O)S(O)(=O)=O

> <InChI_Code_QSARr>
InChI=1S/C17H14N2O8S2/c18-10-3-1-2-9(6-10)17(21)19-13-4-5-15(29(25,26)27)12-7-11(28(22,23)24)8-14(20)16(12)13/h1-8,20H,18H2,(H,19,21)(H,22,23,24)(H,25,26,27)

> <InChI Key_QSARr>
GXAGGOUUTLWTGU-UHFFFAOYSA-N

> <Salt_Solvent>


> <Salt_Solvent_ID>
0

> <Number of connected components>
1

$$$$
Molecule_1572
  Mrv2316 01072400032D          

 28 27  0  0  0  0            999 V2000
   14.1324    8.9850    0.0000 C   0  0  0  0  0  0  0  0  0  0  0  0
   14.8468    8.5725    0.0000 C   0  0  0  0  0  0  0  0  0  0  0  0
   15.5613    8.9850    0.0000 C   0  0  0  0  0  0  0  0  0  0  0  0
   16.2758    8.5725    0.0000 C   0  0  0  0  0  0  0  0  0  0  0  0
   16.9902    8.9850    0.0000 C   0  0  0  0  0  0  0  0  0  0  0  0
   17.7047    8.5725    0.0000 C   0  0  0  0  0  0  0  0  0  0  0  0
   18.4192    8.9850    0.0000 C   0  0  0  0  0  0  0  0  0  0  0  0
   19.1337    8.5725    0.0000 C   0  0  0  0  0  0  0  0  0  0  0  0
   19.8481    8.9850    0.0000 C   0  0  0  0  0  0  0  0  0  0  0  0
   20.5626    8.5725    0.0000 C   0  0  0  0  0  0  0  0  0  0  0  0
   21.2771    8.9850    0.0000 C   0  0  0  0  0  0  0  0  0  0  0  0
   21.9915    8.5725    0.0000 C   0  0  0  0  0  0  0  0  0  0  0  0
   21.9915    7.7475    0.0000 O   0  0  0  0  0  0  0  0  0  0  0  0
   22.7060    8.9850    0.0000 O   0  0  0  0  0  0  0  0  0  0  0  0
   23.4205    8.5725    0.0000 C   0  0  0  0  0  0  0  0  0  0  0  0
   24.1350    8.9850    0.0000 C   0  0  0  0  0  0  0  0  0  0  0  0
   24.8494    8.5725    0.0000 C   0  0  0  0  0  0  0  0  0  0  0  0
   25.5639    8.9850    0.0000 C   0  0  0  0  0  0  0  0  0  0  0  0
   26.2784    8.5725    0.0000 C   0  0  0  0  0  0  0  0  0  0  0  0
   26.9928    8.9850    0.0000 C   0  0  0  0  0  0  0  0  0  0  0  0
   27.7073    8.5725    0.0000 C   0  0  0  0  0  0  0  0  0  0  0  0
   28.4218    8.9850    0.0000 C   0  0  0  0  0  0  0  0  0  0  0  0
   29.1363    8.5725    0.0000 C   0  0  0  0  0  0  0  0  0  0  0  0
   29.8507    8.9850    0.0000 C   0  0  0  0  0  0  0  0  0  0  0  0
   30.5652    8.5725    0.0000 C   0  0  0  0  0  0  0  0  0  0  0  0
   31.2797    8.9850    0.0000 C   0  0  0  0  0  0  0  0  0  0  0  0
   31.9941    8.5725    0.0000 C   0  0  0  0  0  0  0  0  0  0  0  0
   32.7086    8.9850    0.0000 C   0  0  0  0  0  0  0  0  0  0  0  0
  1  2  1  0  0  0  0
  2  3  1  0  0  0  0
  3  4  1  0  0  0  0
  4  5  1  0  0  0  0
  5  6  1  0  0  0  0
  6  7  1  0  0  0  0
  7  8  1  0  0  0  0
  8  9  1  0  0  0  0
  9 10  1  0  0  0  0
 10 11  1  0  0  0  0
 11 12  1  0  0  0  0
 12 13  2  0  0  0  0
 12 14  1  0  0  0  0
 14 15  1  0  0  0  0
 15 16  1  0  0  0  0
 16 17  1  0  0  0  0
 17 18  1  0  0  0  0
 18 19  1  0  0  0  0
 19 20  1  0  0  0  0
 20 21  1  0  0  0  0
 21 22  1  0  0  0  0
 22 23  1  0  0  0  0
 23 24  1  0  0  0  0
 24 25  1  0  0  0  0
 25 26  1  0  0  0  0
 26 27  1  0  0  0  0
 27 28  1  0  0  0  0
M  END
> <RowID>
1572

> <Original_SMILES>
CCCCCCCCCCCC(=O)OCCCCCCCCCCCCCC

> <Canonical_QSARr>
CCCCCCCCCCCC(=O)OCCCCCCCCCCCCCC

> <InChI_Code_QSARr>
InChI=1S/C26H52O2/c1-3-5-7-9-11-13-14-15-17-19-21-23-25-28-26(27)24-22-20-18-16-12-10-8-6-4-2/h3-25H2,1-2H3

> <InChI Key_QSARr>
FNMPODAQERUMDD-UHFFFAOYSA-N

> <Salt_Solvent>


> <Salt_Solvent_ID>
0

> <Number of connected components>
1

$$$$
Molecule_1573
  Mrv2316 01072400032D          

 20 20  0  0  0  0            999 V2000
    3.3113   -0.3020    0.0000 O   0  5  0  0  0  0  0  0  0  0  0  0
    2.8988    0.4125    0.0000 N   0  3  0  0  0  0  0  0  0  0  0  0
    3.3113    1.1270    0.0000 O   0  0  0  0  0  0  0  0  0  0  0  0
    2.0738    0.4125    0.0000 N   0  0  0  0  0  0  0  0  0  0  0  0
    1.7581    1.1747    0.0000 C   0  0  0  0  0  0  0  0  0  0  0  0
    0.9959    1.4904    0.0000 N   0  0  0  0  0  0  0  0  0  0  0  0
    0.9959    2.3154    0.0000 N   0  3  0  0  0  0  0  0  0  0  0  0
    0.2814    2.7279    0.0000 O   0  5  0  0  0  0  0  0  0  0  0  0
    1.7103    2.7279    0.0000 O   0  0  0  0  0  0  0  0  0  0  0  0
    0.2337    1.1747    0.0000 C   0  0  0  0  0  0  0  0  0  0  0  0
   -0.0820    0.4125    0.0000 N   0  0  0  0  0  0  0  0  0  0  0  0
   -0.9070    0.4125    0.0000 N   0  3  0  0  0  0  0  0  0  0  0  0
   -1.3195   -0.3020    0.0000 O   0  5  0  0  0  0  0  0  0  0  0  0
   -1.3195    1.1270    0.0000 O   0  0  0  0  0  0  0  0  0  0  0  0
    0.2337   -0.3497    0.0000 C   0  0  0  0  0  0  0  0  0  0  0  0
    0.9959   -0.6654    0.0000 N   0  0  0  0  0  0  0  0  0  0  0  0
    0.9959   -1.4904    0.0000 N   0  3  0  0  0  0  0  0  0  0  0  0
    1.7103   -1.9029    0.0000 O   0  5  0  0  0  0  0  0  0  0  0  0
    0.2814   -1.9029    0.0000 O   0  0  0  0  0  0  0  0  0  0  0  0
    1.7581   -0.3497    0.0000 C   0  0  0  0  0  0  0  0  0  0  0  0
  1  2  1  0  0  0  0
  2  3  2  0  0  0  0
  2  4  1  0  0  0  0
  5  4  1  0  0  0  0
  6  5  1  0  0  0  0
  6  7  1  0  0  0  0
  7  8  1  0  0  0  0
  7  9  2  0  0  0  0
 10  6  1  0  0  0  0
 11 10  1  0  0  0  0
 11 12  1  0  0  0  0
 12 13  1  0  0  0  0
 12 14  2  0  0  0  0
 15 11  1  0  0  0  0
 16 15  1  0  0  0  0
 16 17  1  0  0  0  0
 17 18  1  0  0  0  0
 17 19  2  0  0  0  0
 20 16  1  0  0  0  0
  4 20  1  0  0  0  0
M  CHG  8   1  -1   2   1   7   1   8  -1  12   1  13  -1  17   1  18  -1
M  END
> <RowID>
1573

> <Original_SMILES>
[O-][N+](=O)N1CN(CN(CN(C1)[N+]([O-])=O)[N+]([O-])=O)[N+]([O-])=O

> <Canonical_QSARr>
[O-][N+](=O)N1CN(CN(CN(C1)[N+]([O-])=O)[N+]([O-])=O)[N+]([O-])=O

> <InChI_Code_QSARr>
InChI=1S/C4H8N8O8/c13-9(14)5-1-6(10(15)16)3-8(12(19)20)4-7(2-5)11(17)18/h1-4H2

> <InChI Key_QSARr>
UZGLIIJVICEWHF-UHFFFAOYSA-N

> <Salt_Solvent>


> <Salt_Solvent_ID>
0

> <Number of connected components>
1

$$$$
Molecule_1575
  Mrv2316 01072400032D          

 11 11  0  0  0  0            999 V2000
    1.7537    2.2125    0.0000 C   0  0  0  0  0  0  0  0  0  0  0  0
    1.7537    1.3875    0.0000 N   0  0  0  0  0  0  0  0  0  0  0  0
    1.0392    0.9750    0.0000 C   0  0  0  0  0  0  0  0  0  0  0  0
    0.3247    1.3875    0.0000 C   0  0  0  0  0  0  0  0  0  0  0  0
    0.3247    2.2125    0.0000 N   0  0  0  0  0  0  0  0  0  0  0  0
   -0.3897    0.9750    0.0000 C   0  0  0  0  0  0  0  0  0  0  0  0
   -0.3897    0.1500    0.0000 C   0  0  0  0  0  0  0  0  0  0  0  0
    0.3247   -0.2625    0.0000 C   0  0  0  0  0  0  0  0  0  0  0  0
    0.3247   -1.0875    0.0000 O   0  0  0  0  0  0  0  0  0  0  0  0
    1.0392   -1.5000    0.0000 C   0  0  0  0  0  0  0  0  0  0  0  0
    1.0392    0.1500    0.0000 N   0  0  0  0  0  0  0  0  0  0  0  0
  1  2  1  0  0  0  0
  2  3  1  0  0  0  0
  4  3  1  0  0  0  0
  4  5  1  0  0  0  0
  6  4  2  0  0  0  0
  7  6  1  0  0  0  0
  8  7  2  0  0  0  0
  8  9  1  0  0  0  0
  9 10  1  0  0  0  0
 11  8  1  0  0  0  0
  3 11  2  0  0  0  0
M  END
> <RowID>
1575

> <Original_SMILES>
Cl.Cl.CNC1=NC(=CC=C1N)OC

> <Canonical_QSARr>
CNC1=NC(=CC=C1N)OC

> <InChI_Code_QSARr>
InChI=1S/C7H11N3O/c1-9-7-5(8)3-4-6(10-7)11-2/h3-4H,8H2,1-2H3,(H,9,10)

> <InChI Key_QSARr>
ATCBPVDYYNJHSG-UHFFFAOYSA-N

> <Salt_Solvent>
Cl

> <Salt_Solvent_ID>
170

> <Number of connected components>
3

$$$$
Molecule_1576
  Mrv2316 01072400032D          

  6  5  0  0  0  0            999 V2000
    1.2375   -0.7145    0.0000 O   0  0  0  0  0  0  0  0  0  0  0  0
    0.8250   -0.0000    0.0000 C   0  0  0  0  0  0  0  0  0  0  0  0
    1.2375    0.7145    0.0000 C   0  0  0  0  0  0  0  0  0  0  0  0
    0.8250    1.4289    0.0000 C   0  0  0  0  0  0  0  0  0  0  0  0
    2.0625    0.7145    0.0000 O   0  0  0  0  0  0  0  0  0  0  0  0
    0.0000   -0.0000    0.0000 O   0  0  0  0  0  0  0  0  0  0  0  0
  1  2  1  0  0  0  0
  2  3  1  0  0  0  0
  3  4  1  0  0  0  0
  3  5  1  0  0  0  0
  2  6  2  0  0  0  0
M  END
> <RowID>
1576

> <Original_SMILES>
CC(=O)C(O)O

> <Canonical_QSARr>
CC(O)C(O)=O

> <InChI_Code_QSARr>
InChI=1S/C3H6O3/c1-2(4)3(5)6/h2,4H,1H3,(H,5,6)

> <InChI Key_QSARr>
JVTAAEKCZFNVCJ-UHFFFAOYSA-N

> <Salt_Solvent>


> <Salt_Solvent_ID>
0

> <Number of connected components>
1

$$$$
Molecule_1577
  Mrv2316 01072400032D          

 14 14  0  0  0  0            999 V2000
    3.2151    0.3830    0.0000 C   0  0  0  0  0  0  0  0  0  0  0  0
    2.5006    0.7955    0.0000 C   0  0  0  0  0  0  0  0  0  0  0  0
    2.5006    1.6205    0.0000 O   0  0  0  0  0  0  0  0  0  0  0  0
    1.7862    0.3830    0.0000 N   0  0  0  0  0  0  0  0  0  0  0  0
    1.0717    0.7955    0.0000 C   0  0  0  0  0  0  0  0  0  0  0  0
    1.0717    1.6205    0.0000 C   0  0  0  0  0  0  0  0  0  0  0  0
    0.3572    2.0330    0.0000 C   0  0  0  0  0  0  0  0  0  0  0  0
    0.3572    2.8580    0.0000 O   0  0  0  0  0  0  0  0  0  0  0  0
   -0.3572    3.2705    0.0000 C   0  0  0  0  0  0  0  0  0  0  0  0
   -0.3572    1.6205    0.0000 C   0  0  0  0  0  0  0  0  0  0  0  0
   -0.3572    0.7955    0.0000 C   0  0  0  0  0  0  0  0  0  0  0  0
    0.3572    0.3830    0.0000 C   0  0  0  0  0  0  0  0  0  0  0  0
    0.3572   -0.4420    0.0000 O   0  0  0  0  0  0  0  0  0  0  0  0
    1.0717   -0.8545    0.0000 C   0  0  0  0  0  0  0  0  0  0  0  0
  1  2  1  0  0  0  0
  2  3  2  0  0  0  0
  2  4  1  0  0  0  0
  4  5  1  0  0  0  0
  6  5  1  0  0  0  0
  7  6  2  0  0  0  0
  7  8  1  0  0  0  0
  8  9  1  0  0  0  0
 10  7  1  0  0  0  0
 11 10  2  0  0  0  0
 12 11  1  0  0  0  0
  5 12  2  0  0  0  0
 12 13  1  0  0  0  0
 13 14  1  0  0  0  0
M  END
> <RowID>
1577

> <Original_SMILES>
CC(=O)NC1C=C(C=CC=1OC)OC

> <Canonical_QSARr>
CC(=O)NC1C=C(C=CC=1OC)OC

> <InChI_Code_QSARr>
InChI=1S/C10H13NO3/c1-7(12)11-9-6-8(13-2)4-5-10(9)14-3/h4-6H,1-3H3,(H,11,12)

> <InChI Key_QSARr>
HOZRMSVNIKYCMB-UHFFFAOYSA-N

> <Salt_Solvent>


> <Salt_Solvent_ID>
0

> <Number of connected components>
1

$$$$
Molecule_1578
  Mrv2316 01072400032D          

 22 21  0  0  0  0            999 V2000
    8.4711    5.7158    0.0000 C   0  0  0  0  0  0  0  0  0  0  0  0
    9.1855    6.1283    0.0000 C   0  0  0  0  0  0  0  0  0  0  0  0
    9.9000    5.7158    0.0000 C   0  0  0  0  0  0  0  0  0  0  0  0
   10.6145    6.1283    0.0000 C   0  0  0  0  0  0  0  0  0  0  0  0
   11.3289    5.7158    0.0000 C   0  0  0  0  0  0  0  0  0  0  0  0
   12.0434    6.1283    0.0000 C   0  0  0  0  0  0  0  0  0  0  0  0
   12.7579    5.7158    0.0000 C   0  0  0  0  0  0  0  0  0  0  0  0
   13.4724    6.1283    0.0000 C   0  0  0  0  0  0  0  0  0  0  0  0
   14.1868    5.7158    0.0000 C   0  0  0  0  0  0  0  0  0  0  0  0
   14.9013    6.1283    0.0000 C   0  0  0  0  0  0  0  0  0  0  0  0
   15.6158    5.7158    0.0000 C   0  0  0  0  0  0  0  0  0  0  0  0
   16.3302    6.1283    0.0000 C   0  0  0  0  0  0  0  0  0  0  0  0
   17.0447    5.7158    0.0000 C   0  0  0  0  0  0  0  0  0  0  0  0
   17.7592    6.1283    0.0000 C   0  0  0  0  0  0  0  0  0  0  0  0
   18.4736    5.7158    0.0000 C   0  0  0  0  0  0  0  0  0  0  0  0
   19.1881    6.1283    0.0000 C   0  0  0  0  0  0  0  0  0  0  0  0
   19.9026    5.7158    0.0000 O   0  0  0  0  0  0  0  0  0  0  0  0
   20.6171    6.1283    0.0000 C   0  0  0  0  0  0  0  0  0  0  0  0
   20.6171    6.9533    0.0000 O   0  0  0  0  0  0  0  0  0  0  0  0
   21.3315    5.7158    0.0000 C   0  0  0  0  0  0  0  0  0  0  0  0
   22.0460    6.1283    0.0000 C   0  0  0  0  0  0  0  0  0  0  0  0
   21.3315    4.8908    0.0000 O   0  0  0  0  0  0  0  0  0  0  0  0
  1  2  1  0  0  0  0
  2  3  1  0  0  0  0
  3  4  1  0  0  0  0
  4  5  1  0  0  0  0
  5  6  1  0  0  0  0
  6  7  1  0  0  0  0
  7  8  1  0  0  0  0
  8  9  1  0  0  0  0
  9 10  1  0  0  0  0
 10 11  1  0  0  0  0
 11 12  1  0  0  0  0
 12 13  1  0  0  0  0
 13 14  1  0  0  0  0
 14 15  1  0  0  0  0
 15 16  1  0  0  0  0
 16 17  1  0  0  0  0
 17 18  1  0  0  0  0
 18 19  2  0  0  0  0
 18 20  1  0  0  0  0
 20 21  1  0  0  0  0
 20 22  1  0  0  0  0
M  END
> <RowID>
1578

> <Original_SMILES>
CCCCCCCCCCCCCCCCOC(=O)C(C)O

> <Canonical_QSARr>
CCCCCCCCCCCCCCCCOC(=O)C(C)O

> <InChI_Code_QSARr>
InChI=1S/C19H38O3/c1-3-4-5-6-7-8-9-10-11-12-13-14-15-16-17-22-19(21)18(2)20/h18,20H,3-17H2,1-2H3

> <InChI Key_QSARr>
WUKXMJCZWYUIRZ-UHFFFAOYSA-N

> <Salt_Solvent>


> <Salt_Solvent_ID>
0

> <Number of connected components>
1

$$$$
Molecule_1579
  Mrv2316 01072400032D          

 20 23  0  0  0  0            999 V2000
   -0.6561   -1.3654    0.0000 N   0  0  0  0  0  0  0  0  0  0  0  0
   -1.4407   -1.1104    0.0000 C   0  0  0  0  0  0  0  0  0  0  0  0
   -2.1552   -1.5229    0.0000 C   0  0  0  0  0  0  0  0  0  0  0  0
   -2.8697   -1.1104    0.0000 C   0  0  0  0  0  0  0  0  0  0  0  0
   -2.8697   -0.2854    0.0000 C   0  0  0  0  0  0  0  0  0  0  0  0
   -2.1552    0.1271    0.0000 C   0  0  0  0  0  0  0  0  0  0  0  0
   -1.4407   -0.2854    0.0000 C   0  0  0  0  0  0  0  0  0  0  0  0
   -0.6561   -0.0305    0.0000 C   0  0  0  0  0  0  0  0  0  0  0  0
   -0.4012    0.7541    0.0000 O   0  0  0  0  0  0  0  0  0  0  0  0
   -0.1712   -0.6979    0.0000 C   0  0  0  0  0  0  0  0  0  0  0  0
    0.6538   -0.6979    0.0000 C   0  0  0  0  0  0  0  0  0  0  0  0
    1.1387   -0.0305    0.0000 N   0  0  0  0  0  0  0  0  0  0  0  0
    1.9233   -0.2854    0.0000 C   0  0  0  0  0  0  0  0  0  0  0  0
    2.6378    0.1271    0.0000 C   0  0  0  0  0  0  0  0  0  0  0  0
    3.3523   -0.2854    0.0000 C   0  0  0  0  0  0  0  0  0  0  0  0
    3.3523   -1.1104    0.0000 C   0  0  0  0  0  0  0  0  0  0  0  0
    2.6378   -1.5229    0.0000 C   0  0  0  0  0  0  0  0  0  0  0  0
    1.9233   -1.1104    0.0000 C   0  0  0  0  0  0  0  0  0  0  0  0
    1.1387   -1.3654    0.0000 C   0  0  0  0  0  0  0  0  0  0  0  0
    0.8838   -2.1500    0.0000 O   0  0  0  0  0  0  0  0  0  0  0  0
  2  1  1  0  0  0  0
  2  3  1  0  0  0  0
  3  4  2  0  0  0  0
  4  5  1  0  0  0  0
  5  6  2  0  0  0  0
  6  7  1  0  0  0  0
  7  2  2  0  0  0  0
  8  7  1  0  0  0  0
  8  9  2  0  0  0  0
 10  8  1  0  0  0  0
  1 10  2  0  0  0  0
 10 11  1  0  0  0  0
 12 11  1  0  0  0  0
 13 12  1  0  0  0  0
 13 14  1  0  0  0  0
 14 15  2  0  0  0  0
 15 16  1  0  0  0  0
 16 17  2  0  0  0  0
 17 18  1  0  0  0  0
 18 13  2  0  0  0  0
 19 18  1  0  0  0  0
 11 19  1  0  0  0  0
 19 20  2  0  0  0  0
M  END
> <RowID>
1579

> <Original_SMILES>
O=C1C(NC2C=CC=CC1=2)=C1NC2C=CC=CC=2C1=O

> <Canonical_QSARr>
O=C1C(=NC2C=CC=CC1=2)C1NC2C=CC=CC=2C1=O

> <InChI_Code_QSARr>
InChI=1S/C16H10N2O2/c19-15-9-5-1-3-7-11(9)17-13(15)14-16(20)10-6-2-4-8-12(10)18-14/h1-8,13,17H

> <InChI Key_QSARr>
ZYXBTFUCIUWLOM-UHFFFAOYSA-N

> <Salt_Solvent>


> <Salt_Solvent_ID>
0

> <Number of connected components>
1

$$$$
Molecule_1580
  Mrv2316 01072400032D          

 11 11  0  0  0  0            999 V2000
    0.1299   -1.5000    0.0000 C   0  0  0  0  0  0  0  0  0  0  0  0
    0.8444   -1.0875    0.0000 O   0  0  0  0  0  0  0  0  0  0  0  0
    0.8444   -0.2625    0.0000 C   0  0  0  0  0  0  0  0  0  0  0  0
    1.5588    0.1500    0.0000 C   0  0  0  0  0  0  0  0  0  0  0  0
    1.5588    0.9750    0.0000 C   0  0  0  0  0  0  0  0  0  0  0  0
    0.8444    1.3875    0.0000 C   0  0  0  0  0  0  0  0  0  0  0  0
    0.8444    2.2125    0.0000 O   0  0  0  0  0  0  0  0  0  0  0  0
    0.1299    2.6250    0.0000 C   0  0  0  0  0  0  0  0  0  0  0  0
    0.1299    0.9750    0.0000 C   0  0  0  0  0  0  0  0  0  0  0  0
    0.1299    0.1500    0.0000 C   0  0  0  0  0  0  0  0  0  0  0  0
   -0.5846   -0.2625    0.0000 Cl  0  0  0  0  0  0  0  0  0  0  0  0
  1  2  1  0  0  0  0
  2  3  1  0  0  0  0
  4  3  2  0  0  0  0
  5  4  1  0  0  0  0
  6  5  2  0  0  0  0
  6  7  1  0  0  0  0
  7  8  1  0  0  0  0
  9  6  1  0  0  0  0
 10  9  2  0  0  0  0
  3 10  1  0  0  0  0
 10 11  1  0  0  0  0
M  END
> <RowID>
1580

> <Original_SMILES>
COC1=CC=C(C=C1Cl)OC

> <Canonical_QSARr>
COC1=CC=C(C=C1Cl)OC

> <InChI_Code_QSARr>
InChI=1S/C8H9ClO2/c1-10-6-3-4-8(11-2)7(9)5-6/h3-5H,1-2H3

> <InChI Key_QSARr>
QMXZSRVFIWACJH-UHFFFAOYSA-N

> <Salt_Solvent>


> <Salt_Solvent_ID>
0

> <Number of connected components>
1

$$$$
Molecule_1581
  Mrv2316 01072400032D          

 38 38  0  0  0  0            999 V2000
    7.1447  -14.2855    0.0000 C   0  0  0  0  0  0  0  0  0  0  0  0
    7.8592  -14.6980    0.0000 C   0  0  0  0  0  0  0  0  0  0  0  0
    8.5736  -14.2855    0.0000 C   0  0  0  0  0  0  0  0  0  0  0  0
    9.2881  -14.6980    0.0000 C   0  0  0  0  0  0  0  0  0  0  0  0
   10.0026  -14.2855    0.0000 C   0  0  0  0  0  0  0  0  0  0  0  0
   10.7171  -14.6980    0.0000 C   0  0  0  0  0  0  0  0  0  0  0  0
   11.4315  -14.2855    0.0000 C   0  0  0  0  0  0  0  0  0  0  0  0
   12.1460  -14.6980    0.0000 C   0  0  0  0  0  0  0  0  0  0  0  0
   12.8605  -14.2855    0.0000 C   0  0  0  0  0  0  0  0  0  0  0  0
   13.5749  -14.6980    0.0000 C   0  0  0  0  0  0  0  0  0  0  0  0
   14.2894  -14.2855    0.0000 C   0  0  0  0  0  0  0  0  0  0  0  0
   15.0039  -14.6980    0.0000 C   0  0  0  0  0  0  0  0  0  0  0  0
   15.7184  -14.2855    0.0000 C   0  0  0  0  0  0  0  0  0  0  0  0
   16.4328  -14.6980    0.0000 C   0  0  0  0  0  0  0  0  0  0  0  0
   17.1473  -14.2855    0.0000 C   0  0  0  0  0  0  0  0  0  0  0  0
   17.8618  -14.6980    0.0000 C   0  0  0  0  0  0  0  0  0  0  0  0
   18.5762  -14.2855    0.0000 C   0  0  0  0  0  0  0  0  0  0  0  0
   19.2907  -14.6980    0.0000 C   0  0  0  0  0  0  0  0  0  0  0  0
   20.0052  -14.2855    0.0000 O   0  0  0  0  0  0  0  0  0  0  0  0
   20.7197  -14.6980    0.0000 C   0  0  0  0  0  0  0  0  0  0  0  0
   20.7197  -15.5230    0.0000 O   0  0  0  0  0  0  0  0  0  0  0  0
   21.4341  -14.2855    0.0000 C   0  0  0  0  0  0  0  0  0  0  0  0
   22.1486  -14.6980    0.0000 C   0  0  0  0  0  0  0  0  0  0  0  0
   22.8631  -14.2855    0.0000 C   0  0  0  0  0  0  0  0  0  0  0  0
   23.5775  -14.6980    0.0000 C   0  0  0  0  0  0  0  0  0  0  0  0
   24.2920  -14.2855    0.0000 C   0  0  0  0  0  0  0  0  0  0  0  0
   25.0065  -14.6980    0.0000 C   0  0  0  0  0  0  0  0  0  0  0  0
   25.7210  -15.1105    0.0000 C   0  0  0  0  0  0  0  0  0  0  0  0
   24.5940  -15.4125    0.0000 C   0  0  0  0  0  0  0  0  0  0  0  0
   25.4190  -13.9836    0.0000 C   0  0  0  0  0  0  0  0  0  0  0  0
   24.2920  -13.4605    0.0000 C   0  0  0  0  0  0  0  0  0  0  0  0
   25.0065  -13.0480    0.0000 O   0  0  0  0  0  0  0  0  0  0  0  0
   23.5775  -13.0480    0.0000 C   0  0  0  0  0  0  0  0  0  0  0  0
   23.5775  -12.2230    0.0000 C   0  0  0  0  0  0  0  0  0  0  0  0
   23.5775  -11.3980    0.0000 C   0  0  0  0  0  0  0  0  0  0  0  0
   22.7525  -12.2230    0.0000 C   0  0  0  0  0  0  0  0  0  0  0  0
   24.4025  -12.2230    0.0000 C   0  0  0  0  0  0  0  0  0  0  0  0
   22.8631  -13.4605    0.0000 C   0  0  0  0  0  0  0  0  0  0  0  0
  1  2  1  0  0  0  0
  2  3  1  0  0  0  0
  3  4  1  0  0  0  0
  4  5  1  0  0  0  0
  5  6  1  0  0  0  0
  6  7  1  0  0  0  0
  7  8  1  0  0  0  0
  8  9  1  0  0  0  0
  9 10  1  0  0  0  0
 10 11  1  0  0  0  0
 11 12  1  0  0  0  0
 12 13  1  0  0  0  0
 13 14  1  0  0  0  0
 14 15  1  0  0  0  0
 15 16  1  0  0  0  0
 16 17  1  0  0  0  0
 17 18  1  0  0  0  0
 18 19  1  0  0  0  0
 19 20  1  0  0  0  0
 20 21  2  0  0  0  0
 20 22  1  0  0  0  0
 22 23  1  0  0  0  0
 23 24  1  0  0  0  0
 25 24  1  0  0  0  0
 26 25  2  0  0  0  0
 26 27  1  0  0  0  0
 27 28  1  0  0  0  0
 27 29  1  0  0  0  0
 27 30  1  0  0  0  0
 31 26  1  0  0  0  0
 31 32  1  0  0  0  0
 33 31  2  0  0  0  0
 33 34  1  0  0  0  0
 34 35  1  0  0  0  0
 34 36  1  0  0  0  0
 34 37  1  0  0  0  0
 38 33  1  0  0  0  0
 24 38  2  0  0  0  0
M  END
> <RowID>
1581

> <Original_SMILES>
CCCCCCCCCCCCCCCCCCOC(=O)CCC1C=C(C(O)=C(C=1)C(C)(C)C)C(C)(C)C

> <Canonical_QSARr>
CCCCCCCCCCCCCCCCCCOC(=O)CCC1C=C(C(O)=C(C=1)C(C)(C)C)C(C)(C)C

> <InChI_Code_QSARr>
InChI=1S/C35H62O3/c1-8-9-10-11-12-13-14-15-16-17-18-19-20-21-22-23-26-38-32(36)25-24-29-27-30(34(2,3)4)33(37)31(28-29)35(5,6)7/h27-28,37H,8-26H2,1-7H3

> <InChI Key_QSARr>
SSDSCDGVMJFTEQ-UHFFFAOYSA-N

> <Salt_Solvent>


> <Salt_Solvent_ID>
0

> <Number of connected components>
1

$$$$
Molecule_1582
  Mrv2316 01072400032D          

 25 24  0  0  0  0            999 V2000
    9.1855    6.1283    0.0000 C   0  0  0  0  0  0  0  0  0  0  0  0
    9.9000    5.7158    0.0000 C   0  0  0  0  0  0  0  0  0  0  0  0
   10.6145    6.1283    0.0000 C   0  0  0  0  0  0  0  0  0  0  0  0
   11.3289    5.7158    0.0000 C   0  0  0  0  0  0  0  0  0  0  0  0
   12.0434    6.1283    0.0000 C   0  0  0  0  0  0  0  0  0  0  0  0
   12.7579    5.7158    0.0000 C   0  0  0  0  0  0  0  0  0  0  0  0
   13.4723    6.1283    0.0000 O   0  0  0  0  0  0  0  0  0  0  0  0
   14.1868    5.7158    0.0000 C   0  0  0  0  0  0  0  0  0  0  0  0
   14.1868    4.8908    0.0000 O   0  0  0  0  0  0  0  0  0  0  0  0
   14.9013    6.1283    0.0000 C   0  0  0  0  0  0  0  0  0  0  0  0
   15.6158    5.7158    0.0000 S   0  0  0  0  0  0  0  0  0  0  0  0
   16.3302    6.1283    0.0000 C   0  0  0  0  0  0  0  0  0  0  0  0
   17.0447    5.7158    0.0000 C   0  0  0  0  0  0  0  0  0  0  0  0
   17.0447    4.8908    0.0000 O   0  0  0  0  0  0  0  0  0  0  0  0
   17.7592    6.1283    0.0000 O   0  0  0  0  0  0  0  0  0  0  0  0
   18.4736    5.7158    0.0000 C   0  0  0  0  0  0  0  0  0  0  0  0
   19.1881    6.1283    0.0000 C   0  0  0  0  0  0  0  0  0  0  0  0
   19.9026    5.7158    0.0000 C   0  0  0  0  0  0  0  0  0  0  0  0
   20.6171    6.1283    0.0000 C   0  0  0  0  0  0  0  0  0  0  0  0
   21.3315    5.7158    0.0000 C   0  0  0  0  0  0  0  0  0  0  0  0
   22.0460    6.1283    0.0000 C   0  0  0  0  0  0  0  0  0  0  0  0
   19.1881    6.9533    0.0000 C   0  0  0  0  0  0  0  0  0  0  0  0
   19.9026    7.3658    0.0000 C   0  0  0  0  0  0  0  0  0  0  0  0
   12.0434    6.9533    0.0000 C   0  0  0  0  0  0  0  0  0  0  0  0
   12.7579    7.3658    0.0000 C   0  0  0  0  0  0  0  0  0  0  0  0
  1  2  1  0  0  0  0
  2  3  1  0  0  0  0
  3  4  1  0  0  0  0
  4  5  1  0  0  0  0
  5  6  1  0  0  0  0
  6  7  1  0  0  0  0
  7  8  1  0  0  0  0
  8  9  2  0  0  0  0
  8 10  1  0  0  0  0
 10 11  1  0  0  0  0
 11 12  1  0  0  0  0
 12 13  1  0  0  0  0
 13 14  2  0  0  0  0
 13 15  1  0  0  0  0
 15 16  1  0  0  0  0
 16 17  1  0  0  0  0
 17 18  1  0  0  0  0
 18 19  1  0  0  0  0
 19 20  1  0  0  0  0
 20 21  1  0  0  0  0
 17 22  1  0  0  0  0
 22 23  1  0  0  0  0
  5 24  1  0  0  0  0
 24 25  1  0  0  0  0
M  END
> <RowID>
1582

> <Original_SMILES>
CCCCC(COC(=O)CSCC(=O)OCC(CCCC)CC)CC

> <Canonical_QSARr>
CCCCC(COC(=O)CSCC(=O)OCC(CCCC)CC)CC

> <InChI_Code_QSARr>
InChI=1S/C20H38O4S/c1-5-9-11-17(7-3)13-23-19(21)15-25-16-20(22)24-14-18(8-4)12-10-6-2/h17-18H,5-16H2,1-4H3

> <InChI Key_QSARr>
KYWZILPIDASSGE-UHFFFAOYSA-N

> <Salt_Solvent>


> <Salt_Solvent_ID>
0

> <Number of connected components>
1

$$$$
Molecule_1583
  Mrv2316 01072400032D          

 16 15  0  0  0  0            999 V2000
    2.3623    2.4295    0.0000 N   0  0  0  0  0  0  0  0  0  0  0  0
    3.1724    2.2736    0.0000 C   0  0  0  0  0  0  0  0  0  0  0  0
    3.9825    2.1177    0.0000 C   0  0  0  0  0  0  0  0  0  0  0  0
    4.2526    1.3381    0.0000 N   0  0  0  0  0  0  0  0  0  0  0  0
    3.7125    0.7145    0.0000 C   0  0  0  0  0  0  0  0  0  0  0  0
    2.9024    0.8704    0.0000 C   0  0  0  0  0  0  0  0  0  0  0  0
    2.0922    1.0263    0.0000 N   0  0  0  0  0  0  0  0  0  0  0  0
    5.0627    1.1822    0.0000 C   0  0  0  0  0  0  0  0  0  0  0  0
    5.3328    0.4027    0.0000 C   0  0  0  0  0  0  0  0  0  0  0  0
    6.1429    0.2468    0.0000 N   0  0  0  0  0  0  0  0  0  0  0  0
    6.4129   -0.5328    0.0000 C   0  0  0  0  0  0  0  0  0  0  0  0
    7.2231   -0.6887    0.0000 C   0  0  0  0  0  0  0  0  0  0  0  0
    8.0332   -0.8446    0.0000 N   0  0  0  0  0  0  0  0  0  0  0  0
    6.6830    0.8704    0.0000 C   0  0  0  0  0  0  0  0  0  0  0  0
    7.4931    0.7145    0.0000 C   0  0  0  0  0  0  0  0  0  0  0  0
    8.3033    0.5586    0.0000 N   0  0  0  0  0  0  0  0  0  0  0  0
  1  2  3  0  0  0  0
  2  3  1  0  0  0  0
  3  4  1  0  0  0  0
  4  5  1  0  0  0  0
  5  6  1  0  0  0  0
  6  7  3  0  0  0  0
  4  8  1  0  0  0  0
  8  9  1  0  0  0  0
  9 10  1  0  0  0  0
 10 11  1  0  0  0  0
 11 12  1  0  0  0  0
 12 13  3  0  0  0  0
 10 14  1  0  0  0  0
 14 15  1  0  0  0  0
 15 16  3  0  0  0  0
M  END
> <RowID>
1583

> <Original_SMILES>
N#CCN(CC#N)CCN(CC#N)CC#N

> <Canonical_QSARr>
N#CCN(CC#N)CCN(CC#N)CC#N

> <InChI_Code_QSARr>
InChI=1S/C10H12N6/c11-1-5-15(6-2-12)9-10-16(7-3-13)8-4-14/h5-10H2

> <InChI Key_QSARr>
FDWRKVKXYZRYOD-UHFFFAOYSA-N

> <Salt_Solvent>


> <Salt_Solvent_ID>
0

> <Number of connected components>
1

$$$$
Molecule_1584
  Mrv2316 01072400032D          

 47 46  0  0  0  0            999 V2000
  -13.4348    2.1434    0.0000 C   0  0  0  0  0  0  0  0  0  0  0  0
  -12.7203    1.7309    0.0000 C   0  0  0  0  0  0  0  0  0  0  0  0
  -12.0059    2.1434    0.0000 C   0  0  0  0  0  0  0  0  0  0  0  0
  -11.2914    1.7309    0.0000 C   0  0  0  0  0  0  0  0  0  0  0  0
  -10.5769    2.1434    0.0000 C   0  0  0  0  0  0  0  0  0  0  0  0
   -9.8624    1.7309    0.0000 C   0  0  0  0  0  0  0  0  0  0  0  0
   -9.1480    2.1434    0.0000 C   0  0  0  0  0  0  0  0  0  0  0  0
   -8.4335    1.7309    0.0000 C   0  0  0  0  0  0  0  0  0  0  0  0
   -7.7190    2.1434    0.0000 C   0  0  0  0  0  0  0  0  0  0  0  0
   -7.0046    1.7309    0.0000 C   0  0  0  0  0  0  0  0  0  0  0  0
   -6.2901    2.1434    0.0000 C   0  0  0  0  0  0  0  0  0  0  0  0
   -5.5756    1.7309    0.0000 C   0  0  0  0  0  0  0  0  0  0  0  0
   -4.8611    2.1434    0.0000 C   0  0  0  0  0  0  0  0  0  0  0  0
   -4.1467    1.7309    0.0000 C   0  0  0  0  0  0  0  0  0  0  0  0
   -3.4322    2.1434    0.0000 C   0  0  0  0  0  0  0  0  0  0  0  0
   -2.7177    1.7309    0.0000 C   0  0  0  0  0  0  0  0  0  0  0  0
   -2.0033    2.1434    0.0000 C   0  0  0  0  0  0  0  0  0  0  0  0
   -1.2888    1.7309    0.0000 C   0  0  0  0  0  0  0  0  0  0  0  0
   -1.2888    0.9059    0.0000 O   0  0  0  0  0  0  0  0  0  0  0  0
   -0.5743    2.1434    0.0000 O   0  0  0  0  0  0  0  0  0  0  0  0
    0.1401    1.7309    0.0000 C   0  0  0  0  0  0  0  0  0  0  0  0
    0.8546    2.1434    0.0000 C   0  0  0  0  0  0  0  0  0  0  0  0
    1.5691    2.5559    0.0000 C   0  0  0  0  0  0  0  0  0  0  0  0
    2.2836    2.1434    0.0000 O   0  0  0  0  0  0  0  0  0  0  0  0
    2.9980    2.5559    0.0000 C   0  0  0  0  0  0  0  0  0  0  0  0
    2.9980    3.3809    0.0000 O   0  0  0  0  0  0  0  0  0  0  0  0
    3.7125    2.1434    0.0000 C   0  0  0  0  0  0  0  0  0  0  0  0
    4.4270    2.5559    0.0000 C   0  0  0  0  0  0  0  0  0  0  0  0
    5.1414    2.1434    0.0000 C   0  0  0  0  0  0  0  0  0  0  0  0
    5.8559    2.5559    0.0000 C   0  0  0  0  0  0  0  0  0  0  0  0
    6.5704    2.1434    0.0000 C   0  0  0  0  0  0  0  0  0  0  0  0
    7.2849    2.5559    0.0000 C   0  0  0  0  0  0  0  0  0  0  0  0
    7.9993    2.1434    0.0000 C   0  0  0  0  0  0  0  0  0  0  0  0
    8.7138    2.5559    0.0000 C   0  0  0  0  0  0  0  0  0  0  0  0
    9.4283    2.1434    0.0000 C   0  0  0  0  0  0  0  0  0  0  0  0
   10.1427    2.5559    0.0000 C   0  0  0  0  0  0  0  0  0  0  0  0
   10.1427    3.3809    0.0000 C   0  0  0  0  0  0  0  0  0  0  0  0
   10.8572    3.7934    0.0000 C   0  0  0  0  0  0  0  0  0  0  0  0
   10.8572    4.6184    0.0000 C   0  0  0  0  0  0  0  0  0  0  0  0
   11.5717    5.0309    0.0000 C   0  0  0  0  0  0  0  0  0  0  0  0
   11.5717    5.8559    0.0000 C   0  0  0  0  0  0  0  0  0  0  0  0
   12.2862    6.2684    0.0000 C   0  0  0  0  0  0  0  0  0  0  0  0
   12.2862    7.0934    0.0000 C   0  0  0  0  0  0  0  0  0  0  0  0
    1.2671    1.4289    0.0000 C   0  0  0  0  0  0  0  0  0  0  0  0
    2.0921    1.4289    0.0000 O   0  0  0  0  0  0  0  0  0  0  0  0
    0.4421    2.8579    0.0000 C   0  0  0  0  0  0  0  0  0  0  0  0
    0.8546    3.5723    0.0000 O   0  0  0  0  0  0  0  0  0  0  0  0
  1  2  1  0  0  0  0
  2  3  1  0  0  0  0
  3  4  1  0  0  0  0
  4  5  1  0  0  0  0
  5  6  1  0  0  0  0
  6  7  1  0  0  0  0
  7  8  1  0  0  0  0
  9  8  1  4  0  0  0
  9 10  2  0  0  0  0
 10 11  1  0  0  0  0
 11 12  1  0  0  0  0
 12 13  1  0  0  0  0
 13 14  1  0  0  0  0
 14 15  1  0  0  0  0
 15 16  1  0  0  0  0
 16 17  1  0  0  0  0
 17 18  1  0  0  0  0
 18 19  2  0  0  0  0
 18 20  1  0  0  0  0
 20 21  1  0  0  0  0
 21 22  1  0  0  0  0
 22 23  1  0  0  0  0
 23 24  1  0  0  0  0
 24 25  1  0  0  0  0
 25 26  2  0  0  0  0
 25 27  1  0  0  0  0
 27 28  1  0  0  0  0
 28 29  1  0  0  0  0
 29 30  1  0  0  0  0
 30 31  1  0  0  0  0
 31 32  1  0  0  0  0
 32 33  1  0  0  0  0
 34 33  1  4  0  0  0
 34 35  2  0  0  0  0
 35 36  1  0  0  0  0
 36 37  1  0  0  0  0
 37 38  1  0  0  0  0
 38 39  1  0  0  0  0
 39 40  1  0  0  0  0
 40 41  1  0  0  0  0
 41 42  1  0  0  0  0
 42 43  1  0  0  0  0
 22 44  1  0  0  0  0
 44 45  1  0  0  0  0
 22 46  1  0  0  0  0
 46 47  1  0  0  0  0
M  END
> <RowID>
1584

> <Original_SMILES>
CCCCCCCCC=CCCCCCCCC(=O)OCC(COC(=O)CCCCCCCC=CCCCCCCCC)(CO)CO

> <Canonical_QSARr>
CCCCCCCCC=CCCCCCCCC(=O)OCC(COC(=O)CCCCCCCC=CCCCCCCCC)(CO)CO

> <InChI_Code_QSARr>
InChI=1S/C41H76O6/c1-3-5-7-9-11-13-15-17-19-21-23-25-27-29-31-33-39(44)46-37-41(35-42,36-43)38-47-40(45)34-32-30-28-26-24-22-20-18-16-14-12-10-8-6-4-2/h17-20,42-43H,3-16,21-38H2,1-2H3

> <InChI Key_QSARr>
BJXXCOMGRRCAGN-UHFFFAOYSA-N

> <Salt_Solvent>


> <Salt_Solvent_ID>
0

> <Number of connected components>
1

$$$$
Molecule_1585
  Mrv2316 01072400032D          

  9 10  0  0  0  0            999 V2000
   -0.5968   -0.9707    0.0000 C   0  0  0  0  0  0  0  0  0  0  0  0
   -0.5968   -0.1457    0.0000 C   0  0  0  0  0  0  0  0  0  0  0  0
    0.1177    0.2668    0.0000 C   0  0  0  0  0  0  0  0  0  0  0  0
    0.1177    1.0918    0.0000 C   0  0  0  0  0  0  0  0  0  0  0  0
    0.8321    1.5043    0.0000 C   0  0  0  0  0  0  0  0  0  0  0  0
    1.0384    0.6793    0.0000 C   0  0  0  0  0  0  0  0  0  0  0  0
    0.8321   -0.1457    0.0000 C   0  0  0  0  0  0  0  0  0  0  0  0
    1.5466    0.2668    0.0000 C   0  0  0  0  0  0  0  0  0  0  0  0
    1.5466    1.0918    0.0000 C   0  0  0  0  0  0  0  0  0  0  0  0
  1  2  2  0  0  0  0
  2  3  1  0  0  0  0
  4  3  1  0  0  0  0
  5  4  1  0  0  0  0
  5  6  1  0  0  0  0
  6  7  1  0  0  0  0
  3  7  1  0  0  0  0
  7  8  1  0  0  0  0
  8  9  2  0  0  0  0
  9  5  1  0  0  0  0
M  END
> <RowID>
1585

> <Original_SMILES>
C=CC1CC2CC1C=C2

> <Canonical_QSARr>
C=CC1CC2CC1C=C2

> <InChI_Code_QSARr>
InChI=1S/C9H12/c1-2-8-5-7-3-4-9(8)6-7/h2-4,7-9H,1,5-6H2

> <InChI Key_QSARr>
INYHZQLKOKTDAI-UHFFFAOYSA-N

> <Salt_Solvent>


> <Salt_Solvent_ID>
0

> <Number of connected components>
1

$$$$
Molecule_1587
  Mrv2316 01072400032D          

 19 18  0  0  0  0            999 V2000
   14.5697    5.9368    0.0000 C   0  0  0  0  0  0  0  0  0  0  0  0
   13.8552    5.5243    0.0000 C   0  0  0  0  0  0  0  0  0  0  0  0
   13.8552    4.6993    0.0000 C   0  0  0  0  0  0  0  0  0  0  0  0
   13.1408    4.2868    0.0000 C   0  0  0  0  0  0  0  0  0  0  0  0
   12.4263    4.6993    0.0000 O   0  0  0  0  0  0  0  0  0  0  0  0
   11.7118    4.2868    0.0000 C   0  0  0  0  0  0  0  0  0  0  0  0
   11.7118    3.4618    0.0000 O   0  0  0  0  0  0  0  0  0  0  0  0
   10.9974    4.6993    0.0000 C   0  0  0  0  0  0  0  0  0  0  0  0
   10.2829    4.2868    0.0000 C   0  0  0  0  0  0  0  0  0  0  0  0
    9.5684    4.6993    0.0000 C   0  0  0  0  0  0  0  0  0  0  0  0
    8.8539    4.2868    0.0000 C   0  0  0  0  0  0  0  0  0  0  0  0
    8.1395    4.6993    0.0000 C   0  0  0  0  0  0  0  0  0  0  0  0
    7.4250    4.2868    0.0000 C   0  0  0  0  0  0  0  0  0  0  0  0
    6.7105    4.6993    0.0000 C   0  0  0  0  0  0  0  0  0  0  0  0
    5.9961    4.2868    0.0000 C   0  0  0  0  0  0  0  0  0  0  0  0
   14.5697    4.2868    0.0000 C   0  0  0  0  0  0  0  0  0  0  0  0
   15.2842    4.6993    0.0000 C   0  0  0  0  0  0  0  0  0  0  0  0
   15.9987    4.2868    0.0000 C   0  0  0  0  0  0  0  0  0  0  0  0
   16.7131    4.6993    0.0000 C   0  0  0  0  0  0  0  0  0  0  0  0
  1  2  1  0  0  0  0
  2  3  1  0  0  0  0
  3  4  1  0  0  0  0
  4  5  1  0  0  0  0
  5  6  1  0  0  0  0
  6  7  2  0  0  0  0
  6  8  1  0  0  0  0
  8  9  1  0  0  0  0
  9 10  1  0  0  0  0
 10 11  1  0  0  0  0
 11 12  1  0  0  0  0
 12 13  1  0  0  0  0
 13 14  1  0  0  0  0
 14 15  1  0  0  0  0
  3 16  1  0  0  0  0
 16 17  1  0  0  0  0
 17 18  1  0  0  0  0
 18 19  1  0  0  0  0
M  END
> <RowID>
1587

> <Original_SMILES>
CCC(COC(=O)CCCCCCCC)CCCC

> <Canonical_QSARr>
CCC(COC(=O)CCCCCCCC)CCCC

> <InChI_Code_QSARr>
InChI=1S/C17H34O2/c1-4-7-9-10-11-12-14-17(18)19-15-16(6-3)13-8-5-2/h16H,4-15H2,1-3H3

> <InChI Key_QSARr>
CCFWAONPPYWNDM-UHFFFAOYSA-N

> <Salt_Solvent>


> <Salt_Solvent_ID>
0

> <Number of connected components>
1

$$$$
Molecule_1588
  Mrv2316 01072400032D          

  5  4  0  0  0  0            999 V2000
    0.8250    1.4289    0.0000 C   0  0  0  0  0  0  0  0  0  0  0  0
    1.2375    0.7145    0.0000 N   0  0  0  0  0  0  0  0  0  0  0  0
    0.8250   -0.0000    0.0000 C   0  0  0  0  0  0  0  0  0  0  0  0
    1.2375   -0.7145    0.0000 C   0  0  0  0  0  0  0  0  0  0  0  0
    0.0000   -0.0000    0.0000 O   0  0  0  0  0  0  0  0  0  0  0  0
  1  2  1  0  0  0  0
  2  3  1  0  0  0  0
  3  4  1  0  0  0  0
  3  5  2  0  0  0  0
M  END
> <RowID>
1588

> <Original_SMILES>
CNC(C)=O

> <Canonical_QSARr>
CNC(C)=O

> <InChI_Code_QSARr>
InChI=1S/C3H7NO/c1-3(5)4-2/h1-2H3,(H,4,5)

> <InChI Key_QSARr>
OHLUUHNLEMFGTQ-UHFFFAOYSA-N

> <Salt_Solvent>


> <Salt_Solvent_ID>
0

> <Number of connected components>
1

$$$$
Molecule_1589
  Mrv2316 01072400032D          

 10  9  0  0  0  0            999 V2000
    1.4289   -4.7289    0.0000 C   0  0  0  0  0  0  0  0  0  0  0  0
    1.4289   -3.9039    0.0000 C   0  0  0  0  0  0  0  0  0  0  0  0
    0.7145   -3.4914    0.0000 O   0  0  0  0  0  0  0  0  0  0  0  0
    0.7145   -2.6664    0.0000 P   0  0  0  0  0  0  0  0  0  0  0  0
   -0.0000   -2.2539    0.0000 O   0  0  0  0  0  0  0  0  0  0  0  0
   -0.0000   -1.4289    0.0000 C   0  0  0  0  0  0  0  0  0  0  0  0
   -0.7145   -1.0164    0.0000 C   0  0  0  0  0  0  0  0  0  0  0  0
    1.4289   -2.2539    0.0000 O   0  0  0  0  0  0  0  0  0  0  0  0
    1.4289   -1.4289    0.0000 C   0  0  0  0  0  0  0  0  0  0  0  0
    2.1434   -1.0164    0.0000 C   0  0  0  0  0  0  0  0  0  0  0  0
  1  2  1  0  0  0  0
  2  3  1  0  0  0  0
  3  4  1  0  0  0  0
  4  5  1  0  0  0  0
  5  6  1  0  0  0  0
  6  7  1  0  0  0  0
  4  8  1  0  0  0  0
  8  9  1  0  0  0  0
  9 10  1  0  0  0  0
M  END
> <RowID>
1589

> <Original_SMILES>
CCOP(OCC)OCC

> <Canonical_QSARr>
CCOP(OCC)OCC

> <InChI_Code_QSARr>
InChI=1S/C6H15O3P/c1-4-7-10(8-5-2)9-6-3/h4-6H2,1-3H3

> <InChI Key_QSARr>
BDZBKCUKTQZUTL-UHFFFAOYSA-N

> <Salt_Solvent>


> <Salt_Solvent_ID>
0

> <Number of connected components>
1

$$$$
Molecule_1590
  Mrv2316 01072400032D          

 20 19  0  0  0  0            999 V2000
    5.0627    1.0005    0.0000 O   0  0  0  0  0  0  0  0  0  0  0  0
    5.8729    1.1564    0.0000 C   0  0  0  0  0  0  0  0  0  0  0  0
    6.1429    1.9360    0.0000 O   0  0  0  0  0  0  0  0  0  0  0  0
    6.4129    0.5328    0.0000 C   0  0  0  0  0  0  0  0  0  0  0  0
    6.1429   -0.2467    0.0000 N   0  0  0  0  0  0  0  0  0  0  0  0
    5.3328   -0.4027    0.0000 C   0  0  0  0  0  0  0  0  0  0  0  0
    5.0627   -1.1822    0.0000 C   0  0  0  0  0  0  0  0  0  0  0  0
    4.2526   -1.3381    0.0000 N   0  0  0  0  0  0  0  0  0  0  0  0
    3.9825   -2.1177    0.0000 C   0  0  0  0  0  0  0  0  0  0  0  0
    4.5226   -2.7413    0.0000 C   0  0  0  0  0  0  0  0  0  0  0  0
    5.3328   -2.5854    0.0000 O   0  0  0  0  0  0  0  0  0  0  0  0
    4.2526   -3.5209    0.0000 O   0  0  0  0  0  0  0  0  0  0  0  0
    3.7125   -0.7145    0.0000 C   0  0  0  0  0  0  0  0  0  0  0  0
    2.9024   -0.8704    0.0000 C   0  0  0  0  0  0  0  0  0  0  0  0
    2.3623   -0.2467    0.0000 O   0  0  0  0  0  0  0  0  0  0  0  0
    2.6323   -1.6499    0.0000 O   0  0  0  0  0  0  0  0  0  0  0  0
    6.6830   -0.8704    0.0000 C   0  0  0  0  0  0  0  0  0  0  0  0
    7.4931   -0.7145    0.0000 C   0  0  0  0  0  0  0  0  0  0  0  0
    7.7632    0.0651    0.0000 O   0  0  0  0  0  0  0  0  0  0  0  0
    8.0332   -1.3381    0.0000 O   0  0  0  0  0  0  0  0  0  0  0  0
  1  2  1  0  0  0  0
  2  3  2  0  0  0  0
  2  4  1  0  0  0  0
  4  5  1  0  0  0  0
  5  6  1  0  0  0  0
  6  7  1  0  0  0  0
  7  8  1  0  0  0  0
  8  9  1  0  0  0  0
  9 10  1  0  0  0  0
 10 11  1  0  0  0  0
 10 12  2  0  0  0  0
  8 13  1  0  0  0  0
 13 14  1  0  0  0  0
 14 15  2  0  0  0  0
 14 16  1  0  0  0  0
  5 17  1  0  0  0  0
 17 18  1  0  0  0  0
 18 19  1  0  0  0  0
 18 20  2  0  0  0  0
M  END
> <RowID>
1590

> <Original_SMILES>
[NH4+].[NH4+].[NH4+].[O-]C(=O)CN(CC(O)=O)CCN(CC([O-])=O)CC([O-])=O

> <Canonical_QSARr>
OC(=O)CN(CC(O)=O)CCN(CC(O)=O)CC(O)=O

> <InChI_Code_QSARr>
InChI=1S/C10H16N2O8/c13-7(14)3-11(4-8(15)16)1-2-12(5-9(17)18)6-10(19)20/h1-6H2,(H,13,14)(H,15,16)(H,17,18)(H,19,20)

> <InChI Key_QSARr>
KCXVZYZYPLLWCC-UHFFFAOYSA-N

> <Salt_Solvent>
[NH4+]

> <Salt_Solvent_ID>
70

> <Number of connected components>
4

$$$$
Molecule_1591
  Mrv2316 01072400032D          

 24 26  0  0  0  0            999 V2000
   -3.8837   -1.7101    0.0000 C   0  0  0  0  0  0  0  0  0  0  0  0
   -3.0587   -1.7101    0.0000 C   0  0  0  0  0  0  0  0  0  0  0  0
   -3.0587   -2.5351    0.0000 C   0  0  0  0  0  0  0  0  0  0  0  0
   -3.0587   -0.8851    0.0000 C   0  0  0  0  0  0  0  0  0  0  0  0
   -2.2337   -1.7101    0.0000 C   0  0  0  0  0  0  0  0  0  0  0  0
   -1.8212   -0.9956    0.0000 C   0  0  0  0  0  0  0  0  0  0  0  0
   -1.1067   -1.4081    0.0000 C   0  0  0  0  0  0  0  0  0  0  0  0
   -2.5357   -0.5831    0.0000 C   0  0  0  0  0  0  0  0  0  0  0  0
   -1.4087   -0.2811    0.0000 C   0  0  0  0  0  0  0  0  0  0  0  0
   -0.5837   -0.2811    0.0000 C   0  0  0  0  0  0  0  0  0  0  0  0
   -0.1712    0.4333    0.0000 C   0  0  0  0  0  0  0  0  0  0  0  0
    0.6538    0.4333    0.0000 N   0  0  0  0  0  0  0  0  0  0  0  0
    1.1387    1.1008    0.0000 N   0  0  0  0  0  0  0  0  0  0  0  0
    1.9233    0.8458    0.0000 C   0  0  0  0  0  0  0  0  0  0  0  0
    2.6378    1.2583    0.0000 C   0  0  0  0  0  0  0  0  0  0  0  0
    3.3523    0.8458    0.0000 C   0  0  0  0  0  0  0  0  0  0  0  0
    3.3523    0.0208    0.0000 C   0  0  0  0  0  0  0  0  0  0  0  0
    2.6378   -0.3917    0.0000 C   0  0  0  0  0  0  0  0  0  0  0  0
    1.9233    0.0208    0.0000 C   0  0  0  0  0  0  0  0  0  0  0  0
    1.1387   -0.2341    0.0000 N   0  0  0  0  0  0  0  0  0  0  0  0
   -0.5837    1.1478    0.0000 C   0  0  0  0  0  0  0  0  0  0  0  0
   -0.1712    1.8623    0.0000 O   0  0  0  0  0  0  0  0  0  0  0  0
   -1.4087    1.1478    0.0000 C   0  0  0  0  0  0  0  0  0  0  0  0
   -1.8212    0.4333    0.0000 C   0  0  0  0  0  0  0  0  0  0  0  0
  1  2  1  0  0  0  0
  2  3  1  0  0  0  0
  2  4  1  0  0  0  0
  2  5  1  0  0  0  0
  5  6  1  0  0  0  0
  6  7  1  0  0  0  0
  6  8  1  0  0  0  0
  6  9  1  0  0  0  0
 10  9  2  0  0  0  0
 11 10  1  0  0  0  0
 11 12  1  0  0  0  0
 13 12  1  0  0  0  0
 14 13  2  0  0  0  0
 14 15  1  0  0  0  0
 15 16  2  0  0  0  0
 16 17  1  0  0  0  0
 17 18  2  0  0  0  0
 18 19  1  0  0  0  0
 19 14  1  0  0  0  0
 20 19  2  0  0  0  0
 12 20  1  0  0  0  0
 21 11  2  0  0  0  0
 21 22  1  0  0  0  0
 23 21  1  0  0  0  0
 24 23  2  0  0  0  0
  9 24  1  0  0  0  0
M  END
> <RowID>
1591

> <Original_SMILES>
CC(C)(C)CC(C)(C)C1=CC(=C(O)C=C1)N1N=C2C=CC=CC2=N1

> <Canonical_QSARr>
CC(C)(C)CC(C)(C)C1=CC(=C(O)C=C1)N1N=C2C=CC=CC2=N1

> <InChI_Code_QSARr>
InChI=1S/C20H25N3O/c1-19(2,3)13-20(4,5)14-10-11-18(24)17(12-14)23-21-15-8-6-7-9-16(15)22-23/h6-12,24H,13H2,1-5H3

> <InChI Key_QSARr>
IYAZLDLPUNDVAG-UHFFFAOYSA-N

> <Salt_Solvent>


> <Salt_Solvent_ID>
0

> <Number of connected components>
1

$$$$
Molecule_1593
  Mrv2316 01072400032D          

  7  7  0  0  0  0            999 V2000
    0.7145    2.0625    0.0000 O   0  0  0  0  0  0  0  0  0  0  0  0
    0.7145    1.2375    0.0000 C   0  0  0  0  0  0  0  0  0  0  0  0
    0.0000    0.8250    0.0000 N   0  0  0  0  0  0  0  0  0  0  0  0
    0.0000   -0.0000    0.0000 C   0  0  0  0  0  0  0  0  0  0  0  0
    0.7145   -0.4125    0.0000 C   0  0  0  0  0  0  0  0  0  0  0  0
    1.4289    0.0000    0.0000 C   0  0  0  0  0  0  0  0  0  0  0  0
    1.4289    0.8250    0.0000 N   0  0  0  0  0  0  0  0  0  0  0  0
  1  2  2  0  0  0  0
  3  2  1  0  0  0  0
  4  3  1  0  0  0  0
  5  4  1  0  0  0  0
  6  5  1  0  0  0  0
  7  6  1  0  0  0  0
  2  7  1  0  0  0  0
M  END
> <RowID>
1593

> <Original_SMILES>
O=C1NCCCN1

> <Canonical_QSARr>
O=C1NCCCN1

> <InChI_Code_QSARr>
InChI=1S/C4H8N2O/c7-4-5-2-1-3-6-4/h1-3H2,(H2,5,6,7)

> <InChI Key_QSARr>
NQPJDJVGBDHCAD-UHFFFAOYSA-N

> <Salt_Solvent>


> <Salt_Solvent_ID>
0

> <Number of connected components>
1

$$$$
Molecule_1595
  Mrv2316 01072400032D          

  7  6  0  0  0  0            999 V2000
    1.2375    0.7145    0.0000 C   0  0  0  0  0  0  0  0  0  0  0  0
    0.8250    1.4289    0.0000 C   0  0  0  0  0  0  0  0  0  0  0  0
    1.2375    2.1434    0.0000 O   0  0  0  0  0  0  0  0  0  0  0  0
   -0.0000    1.4289    0.0000 C   0  0  0  0  0  0  0  0  0  0  0  0
    0.8250   -0.0000    0.0000 C   0  0  0  0  0  0  0  0  0  0  0  0
    1.2375   -0.7145    0.0000 C   0  0  0  0  0  0  0  0  0  0  0  0
    0.0000   -0.0000    0.0000 O   0  0  0  0  0  0  0  0  0  0  0  0
  1  2  1  0  0  0  0
  2  3  2  0  0  0  0
  2  4  1  0  0  0  0
  1  5  1  0  0  0  0
  5  6  1  0  0  0  0
  5  7  2  0  0  0  0
M  END
> <RowID>
1595

> <Original_SMILES>
[Pd+2].CC(=O)[CH-]C(C)=O.CC(=O)[CH-]C(C)=O

> <Canonical_QSARr>
CC(=O)CC(C)=O

> <InChI_Code_QSARr>
InChI=1S/C5H8O2/c1-4(6)3-5(2)7/h3H2,1-2H3

> <InChI Key_QSARr>
YRKCREAYFQTBPV-UHFFFAOYSA-N

> <Salt_Solvent>
[Pd+2]

> <Salt_Solvent_ID>
460

> <Number of connected components>
3

$$$$
Molecule_1596
  Mrv2316 01072400032D          

  9  9  0  0  0  0            999 V2000
    2.1434   -0.4125    0.0000 C   0  0  0  0  0  0  0  0  0  0  0  0
    1.4289   -0.0000    0.0000 C   0  0  0  0  0  0  0  0  0  0  0  0
    1.4289    0.8250    0.0000 C   0  0  0  0  0  0  0  0  0  0  0  0
    0.7145    1.2375    0.0000 C   0  0  0  0  0  0  0  0  0  0  0  0
    0.7145    2.0625    0.0000 C   0  0  0  0  0  0  0  0  0  0  0  0
   -0.0000    0.8250    0.0000 C   0  0  0  0  0  0  0  0  0  0  0  0
   -0.0000    0.0000    0.0000 C   0  0  0  0  0  0  0  0  0  0  0  0
   -0.7145   -0.4125    0.0000 C   0  0  0  0  0  0  0  0  0  0  0  0
    0.7145   -0.4125    0.0000 C   0  0  0  0  0  0  0  0  0  0  0  0
  1  2  1  0  0  0  0
  3  2  1  0  0  0  0
  4  3  2  0  0  0  0
  4  5  1  0  0  0  0
  6  4  1  0  0  0  0
  7  6  2  0  0  0  0
  7  8  1  0  0  0  0
  9  7  1  0  0  0  0
  2  9  2  0  0  0  0
M  END
> <RowID>
1596

> <Original_SMILES>
CC1C=C(C)C=C(C)C=1

> <Canonical_QSARr>
CC1C=C(C)C=C(C)C=1

> <InChI_Code_QSARr>
InChI=1S/C9H12/c1-7-4-8(2)6-9(3)5-7/h4-6H,1-3H3

> <InChI Key_QSARr>
AUHZEENZYGFFBQ-UHFFFAOYSA-N

> <Salt_Solvent>


> <Salt_Solvent_ID>
0

> <Number of connected components>
1

$$$$
Molecule_1597
  Mrv2316 01072400032D          

 12 11  0  0  0  0            999 V2000
    2.2836    2.1434    0.0000 S   0  0  0  0  0  0  0  0  0  0  0  0
    2.9980    2.5559    0.0000 C   0  0  0  0  0  0  0  0  0  0  0  0
    3.7125    2.1434    0.0000 C   0  0  0  0  0  0  0  0  0  0  0  0
    4.4270    2.5559    0.0000 S   0  0  0  0  0  0  0  0  0  0  0  0
    5.1414    2.1434    0.0000 C   0  0  0  0  0  0  0  0  0  0  0  0
    5.8559    2.5559    0.0000 C   0  0  0  0  0  0  0  0  0  0  0  0
    5.8559    3.3809    0.0000 C   0  0  0  0  0  0  0  0  0  0  0  0
    6.5704    3.7934    0.0000 S   0  0  0  0  0  0  0  0  0  0  0  0
    6.5704    2.1434    0.0000 S   0  0  0  0  0  0  0  0  0  0  0  0
    7.2849    2.5559    0.0000 C   0  0  0  0  0  0  0  0  0  0  0  0
    7.9993    2.1434    0.0000 C   0  0  0  0  0  0  0  0  0  0  0  0
    8.7138    2.5559    0.0000 S   0  0  0  0  0  0  0  0  0  0  0  0
  1  2  1  0  0  0  0
  2  3  1  0  0  0  0
  3  4  1  0  0  0  0
  4  5  1  0  0  0  0
  5  6  1  0  0  0  0
  6  7  1  0  0  0  0
  7  8  1  0  0  0  0
  6  9  1  0  0  0  0
  9 10  1  0  0  0  0
 10 11  1  0  0  0  0
 11 12  1  0  0  0  0
M  END
> <RowID>
1597

> <Original_SMILES>
SCCSCC(CS)SCCS

> <Canonical_QSARr>
SCCSCC(CS)SCCS

> <InChI_Code_QSARr>
InChI=1S/C7H16S5/c8-1-3-11-6-7(5-10)12-4-2-9/h7-10H,1-6H2

> <InChI Key_QSARr>
CEUQYYYUSUCFKP-UHFFFAOYSA-N

> <Salt_Solvent>


> <Salt_Solvent_ID>
0

> <Number of connected components>
1

$$$$
Molecule_1598
  Mrv2316 01072400032D          

 15 16  0  0  0  0            999 V2000
   -3.0008    0.4125    0.0000 N   0  0  0  0  0  0  0  0  0  0  0  0
   -2.2863   -0.0000    0.0000 C   0  0  0  0  0  0  0  0  0  0  0  0
   -1.5718   -0.4125    0.0000 C   0  0  0  0  0  0  0  0  0  0  0  0
   -1.5718   -1.2375    0.0000 C   0  0  0  0  0  0  0  0  0  0  0  0
   -2.2863   -1.6500    0.0000 C   0  0  0  0  0  0  0  0  0  0  0  0
   -2.2863   -2.4750    0.0000 C   0  0  0  0  0  0  0  0  0  0  0  0
   -1.5718   -2.8875    0.0000 C   0  0  0  0  0  0  0  0  0  0  0  0
   -0.8574   -2.4750    0.0000 C   0  0  0  0  0  0  0  0  0  0  0  0
   -0.8574   -1.6500    0.0000 C   0  0  0  0  0  0  0  0  0  0  0  0
   -0.8574    0.0000    0.0000 C   0  0  0  0  0  0  0  0  0  0  0  0
   -0.1429   -0.4125    0.0000 C   0  0  0  0  0  0  0  0  0  0  0  0
    0.5716    0.0000    0.0000 C   0  0  0  0  0  0  0  0  0  0  0  0
    0.5716    0.8250    0.0000 C   0  0  0  0  0  0  0  0  0  0  0  0
   -0.1429    1.2375    0.0000 C   0  0  0  0  0  0  0  0  0  0  0  0
   -0.8574    0.8250    0.0000 C   0  0  0  0  0  0  0  0  0  0  0  0
  1  2  3  0  0  0  0
  2  3  1  0  0  0  0
  3  4  1  0  0  0  0
  5  4  1  0  0  0  0
  6  5  2  0  0  0  0
  7  6  1  0  0  0  0
  8  7  2  0  0  0  0
  9  8  1  0  0  0  0
  4  9  2  0  0  0  0
  3 10  2  0  0  0  0
 11 10  1  0  0  0  0
 12 11  1  0  0  0  0
 13 12  1  0  0  0  0
 14 13  1  0  0  0  0
 15 14  1  0  0  0  0
 10 15  1  0  0  0  0
M  END
> <RowID>
1598

> <Original_SMILES>
N#CC(C1C=CC=CC=1)=C1CCCCC1

> <Canonical_QSARr>
N#CC(C1C=CC=CC=1)=C1CCCCC1

> <InChI_Code_QSARr>
InChI=1S/C14H15N/c15-11-14(12-7-3-1-4-8-12)13-9-5-2-6-10-13/h1,3-4,7-8H,2,5-6,9-10H2

> <InChI Key_QSARr>
ZHOOOLQOWQVYOE-UHFFFAOYSA-N

> <Salt_Solvent>


> <Salt_Solvent_ID>
0

> <Number of connected components>
1

$$$$
Molecule_1599
  Mrv2316 01072400032D          

 22 24  0  0  0  0            999 V2000
   -3.6048    2.0062    0.0000 C   0  0  0  0  0  0  0  0  0  0  0  0
   -3.6048    1.1812    0.0000 O   0  0  0  0  0  0  0  0  0  0  0  0
   -2.8904    0.7687    0.0000 C   0  0  0  0  0  0  0  0  0  0  0  0
   -2.8904   -0.0563    0.0000 C   0  0  0  0  0  0  0  0  0  0  0  0
   -2.1759   -0.4688    0.0000 C   0  0  0  0  0  0  0  0  0  0  0  0
   -1.4614   -0.0563    0.0000 C   0  0  0  0  0  0  0  0  0  0  0  0
   -0.7469   -0.4688    0.0000 N   0  0  0  0  0  0  0  0  0  0  0  0
   -0.0325   -0.0562    0.0000 C   0  0  0  0  0  0  0  0  0  0  0  0
   -0.0325    0.7688    0.0000 O   0  0  0  0  0  0  0  0  0  0  0  0
    0.6820   -0.4687    0.0000 C   0  0  0  0  0  0  0  0  0  0  0  0
    1.3965   -0.0562    0.0000 C   0  0  0  0  0  0  0  0  0  0  0  0
    2.1109   -0.4687    0.0000 C   0  0  0  0  0  0  0  0  0  0  0  0
    2.8254   -0.0562    0.0000 C   0  0  0  0  0  0  0  0  0  0  0  0
    3.5399   -0.4687    0.0000 C   0  0  0  0  0  0  0  0  0  0  0  0
    3.5399   -1.2937    0.0000 C   0  0  0  0  0  0  0  0  0  0  0  0
    2.8254   -1.7062    0.0000 C   0  0  0  0  0  0  0  0  0  0  0  0
    2.1109   -1.2937    0.0000 C   0  0  0  0  0  0  0  0  0  0  0  0
    1.3965   -1.7062    0.0000 C   0  0  0  0  0  0  0  0  0  0  0  0
    0.6820   -1.2937    0.0000 C   0  0  0  0  0  0  0  0  0  0  0  0
   -0.0325   -1.7062    0.0000 O   0  0  0  0  0  0  0  0  0  0  0  0
   -1.4614    0.7687    0.0000 C   0  0  0  0  0  0  0  0  0  0  0  0
   -2.1759    1.1812    0.0000 C   0  0  0  0  0  0  0  0  0  0  0  0
  1  2  1  0  0  0  0
  2  3  1  0  0  0  0
  4  3  1  0  0  0  0
  5  4  2  0  0  0  0
  6  5  1  0  0  0  0
  6  7  1  0  0  0  0
  7  8  1  0  0  0  0
  8  9  2  0  0  0  0
  8 10  1  0  0  0  0
 11 10  1  0  0  0  0
 12 11  2  0  0  0  0
 12 13  1  0  0  0  0
 13 14  2  0  0  0  0
 14 15  1  0  0  0  0
 15 16  2  0  0  0  0
 16 17  1  0  0  0  0
 17 12  1  0  0  0  0
 18 17  2  0  0  0  0
 19 18  1  0  0  0  0
 10 19  2  0  0  0  0
 19 20  1  0  0  0  0
 21  6  2  0  0  0  0
 22 21  1  0  0  0  0
  3 22  2  0  0  0  0
M  END
> <RowID>
1599

> <Original_SMILES>
COC1C=CC(=CC=1)NC(=O)C1C=C2C=CC=CC2=CC=1O

> <Canonical_QSARr>
COC1C=CC(=CC=1)NC(=O)C1C=C2C=CC=CC2=CC=1O

> <InChI_Code_QSARr>
InChI=1S/C18H15NO3/c1-22-15-8-6-14(7-9-15)19-18(21)16-10-12-4-2-3-5-13(12)11-17(16)20/h2-11,20H,1H3,(H,19,21)

> <InChI Key_QSARr>
UIXFPIHXQQZAGX-UHFFFAOYSA-N

> <Salt_Solvent>


> <Salt_Solvent_ID>
0

> <Number of connected components>
1

$$$$
Molecule_1600
  Mrv2316 01072400032D          

 11 11  0  0  0  0            999 V2000
    2.5981   -1.2000    0.0000 C   0  0  0  0  0  0  0  0  0  0  0  0
    1.8836   -0.7875    0.0000 C   0  0  0  0  0  0  0  0  0  0  0  0
    1.8836    0.0375    0.0000 C   0  0  0  0  0  0  0  0  0  0  0  0
    1.1691    0.4500    0.0000 C   0  0  0  0  0  0  0  0  0  0  0  0
    1.1691    1.2750    0.0000 N   0  3  0  0  0  0  0  0  0  0  0  0
    0.4547    1.6875    0.0000 O   0  5  0  0  0  0  0  0  0  0  0  0
    1.8836    1.6875    0.0000 O   0  0  0  0  0  0  0  0  0  0  0  0
    0.4547    0.0375    0.0000 C   0  0  0  0  0  0  0  0  0  0  0  0
   -0.2598    0.4500    0.0000 N   0  0  0  0  0  0  0  0  0  0  0  0
    0.4547   -0.7875    0.0000 C   0  0  0  0  0  0  0  0  0  0  0  0
    1.1691   -1.2000    0.0000 C   0  0  0  0  0  0  0  0  0  0  0  0
  1  2  1  0  0  0  0
  3  2  2  0  0  0  0
  4  3  1  0  0  0  0
  4  5  1  0  0  0  0
  5  6  1  0  0  0  0
  5  7  2  0  0  0  0
  8  4  2  0  0  0  0
  8  9  1  0  0  0  0
 10  8  1  0  0  0  0
 11 10  2  0  0  0  0
  2 11  1  0  0  0  0
M  CHG  2   5   1   6  -1
M  END
> <RowID>
1600

> <Original_SMILES>
CC1=CC(=C(N)C=C1)[N+]([O-])=O

> <Canonical_QSARr>
CC1=CC(=C(N)C=C1)[N+]([O-])=O

> <InChI_Code_QSARr>
InChI=1S/C7H8N2O2/c1-5-2-3-6(8)7(4-5)9(10)11/h2-4H,8H2,1H3

> <InChI Key_QSARr>
DLURHXYXQYMPLT-UHFFFAOYSA-N

> <Salt_Solvent>


> <Salt_Solvent_ID>
0

> <Number of connected components>
1

$$$$
Molecule_1602
  Mrv2316 01072400032D          

 13 13  0  0  0  0            999 V2000
    1.6488    4.1250    0.0000 O   0  5  0  0  0  0  0  0  0  0  0  0
    0.9343    3.7125    0.0000 S   0  0  0  0  0  0  0  0  0  0  0  0
    0.5218    4.4270    0.0000 O   0  0  0  0  0  0  0  0  0  0  0  0
    1.3468    2.9980    0.0000 O   0  0  0  0  0  0  0  0  0  0  0  0
    0.2198    3.3000    0.0000 C   0  0  0  0  0  0  0  0  0  0  0  0
    0.2198    2.4750    0.0000 C   0  0  0  0  0  0  0  0  0  0  0  0
   -0.4946    2.0625    0.0000 C   0  0  0  0  0  0  0  0  0  0  0  0
   -0.4946    1.2375    0.0000 N   0  3  0  0  0  0  0  0  0  0  0  0
   -1.2091    0.8250    0.0000 C   0  0  0  0  0  0  0  0  0  0  0  0
   -1.2091   -0.0000    0.0000 C   0  0  0  0  0  0  0  0  0  0  0  0
   -0.4946   -0.4125    0.0000 C   0  0  0  0  0  0  0  0  0  0  0  0
    0.2198    0.0000    0.0000 C   0  0  0  0  0  0  0  0  0  0  0  0
    0.2198    0.8250    0.0000 C   0  0  0  0  0  0  0  0  0  0  0  0
  1  2  1  0  0  0  0
  2  3  2  0  0  0  0
  2  4  2  0  0  0  0
  2  5  1  0  0  0  0
  5  6  1  0  0  0  0
  6  7  1  0  0  0  0
  7  8  1  0  0  0  0
  9  8  1  0  0  0  0
 10  9  2  0  0  0  0
 11 10  1  0  0  0  0
 12 11  2  0  0  0  0
 13 12  1  0  0  0  0
  8 13  2  0  0  0  0
M  CHG  2   1  -1   8   1
M  END
> <RowID>
1602

> <Original_SMILES>
[O-]S(=O)(=O)CCC[N+]1C=CC=CC=1

> <Canonical_QSARr>
[O-]S(=O)(=O)CCC[N+]1C=CC=CC=1

> <InChI_Code_QSARr>
InChI=1S/C8H11NO3S/c10-13(11,12)8-4-7-9-5-2-1-3-6-9/h1-3,5-6H,4,7-8H2

> <InChI Key_QSARr>
REEBJQTUIJTGAL-UHFFFAOYSA-N

> <Salt_Solvent>


> <Salt_Solvent_ID>
0

> <Number of connected components>
1

$$$$
Molecule_1603
  Mrv2316 01072400032D          

 15 15  0  0  0  0            999 V2000
    0.0000   -3.8793    0.0000 C   0  0  0  0  0  0  0  0  0  0  0  0
    0.7145   -3.4668    0.0000 C   0  0  0  0  0  0  0  0  0  0  0  0
    1.4289   -3.8793    0.0000 C   0  0  0  0  0  0  0  0  0  0  0  0
    2.1434   -3.4668    0.0000 C   0  0  0  0  0  0  0  0  0  0  0  0
    2.8579   -3.8793    0.0000 N   0  0  0  0  0  0  0  0  0  0  0  0
    3.5724   -3.4668    0.0000 C   0  0  0  0  0  0  0  0  0  0  0  0
    4.2868   -3.8793    0.0000 C   0  0  0  0  0  0  0  0  0  0  0  0
    5.0013   -3.4668    0.0000 C   0  0  0  0  0  0  0  0  0  0  0  0
    5.2835   -4.2420    0.0000 C   0  0  0  0  0  0  0  0  0  0  0  0
    5.8138   -3.3235    0.0000 C   0  0  0  0  0  0  0  0  0  0  0  0
    5.0013   -2.6418    0.0000 N   0  0  0  0  0  0  0  0  0  0  0  0
    4.2868   -2.2293    0.0000 C   0  0  0  0  0  0  0  0  0  0  0  0
    4.8171   -1.5973    0.0000 C   0  0  0  0  0  0  0  0  0  0  0  0
    3.7565   -1.5973    0.0000 C   0  0  0  0  0  0  0  0  0  0  0  0
    3.5724   -2.6418    0.0000 C   0  0  0  0  0  0  0  0  0  0  0  0
  1  2  1  0  0  0  0
  2  3  1  0  0  0  0
  3  4  1  0  0  0  0
  4  5  1  0  0  0  0
  5  6  1  0  0  0  0
  7  6  1  0  0  0  0
  8  7  1  0  0  0  0
  8  9  1  0  0  0  0
  8 10  1  0  0  0  0
 11  8  1  0  0  0  0
 12 11  1  0  0  0  0
 12 13  1  0  0  0  0
 12 14  1  0  0  0  0
 15 12  1  0  0  0  0
  6 15  1  0  0  0  0
M  END
> <RowID>
1603

> <Original_SMILES>
CCCCNC1CC(C)(C)NC(C)(C)C1

> <Canonical_QSARr>
CCCCNC1CC(C)(C)NC(C)(C)C1

> <InChI_Code_QSARr>
InChI=1S/C13H28N2/c1-6-7-8-14-11-9-12(2,3)15-13(4,5)10-11/h11,14-15H,6-10H2,1-5H3

> <InChI Key_QSARr>
FDAKZQLBIFPGSV-UHFFFAOYSA-N

> <Salt_Solvent>


> <Salt_Solvent_ID>
0

> <Number of connected components>
1

$$$$
Molecule_1604
  Mrv2316 01072400032D          

 42 41  0  0  0  0            999 V2000
   20.8523   12.8628    0.0000 C   0  0  0  0  0  0  0  0  0  0  0  0
   21.5668   13.2753    0.0000 C   0  0  0  0  0  0  0  0  0  0  0  0
   22.2812   12.8628    0.0000 C   0  0  0  0  0  0  0  0  0  0  0  0
   22.9957   13.2753    0.0000 C   0  0  0  0  0  0  0  0  0  0  0  0
   23.7102   12.8628    0.0000 C   0  0  0  0  0  0  0  0  0  0  0  0
   24.4247   13.2753    0.0000 C   0  0  0  0  0  0  0  0  0  0  0  0
   25.1391   12.8628    0.0000 C   0  0  0  0  0  0  0  0  0  0  0  0
   25.8536   13.2753    0.0000 C   0  0  0  0  0  0  0  0  0  0  0  0
   26.5681   12.8628    0.0000 C   0  0  0  0  0  0  0  0  0  0  0  0
   27.2825   13.2753    0.0000 C   0  0  0  0  0  0  0  0  0  0  0  0
   27.9970   12.8628    0.0000 C   0  0  0  0  0  0  0  0  0  0  0  0
   28.7115   13.2753    0.0000 C   0  0  0  0  0  0  0  0  0  0  0  0
   29.4259   12.8628    0.0000 C   0  0  0  0  0  0  0  0  0  0  0  0
   30.1404   13.2753    0.0000 C   0  0  0  0  0  0  0  0  0  0  0  0
   30.8549   12.8628    0.0000 C   0  0  0  0  0  0  0  0  0  0  0  0
   31.5694   13.2753    0.0000 C   0  0  0  0  0  0  0  0  0  0  0  0
   32.2838   12.8628    0.0000 C   0  0  0  0  0  0  0  0  0  0  0  0
   32.9983   13.2753    0.0000 C   0  0  0  0  0  0  0  0  0  0  0  0
   32.9983   14.1003    0.0000 O   0  0  0  0  0  0  0  0  0  0  0  0
   33.7128   12.8628    0.0000 N   0  0  0  0  0  0  0  0  0  0  0  0
   34.4272   13.2753    0.0000 C   0  0  0  0  0  0  0  0  0  0  0  0
   35.1417   12.8628    0.0000 C   0  0  0  0  0  0  0  0  0  0  0  0
   35.8562   13.2753    0.0000 N   0  0  0  0  0  0  0  0  0  0  0  0
   36.5707   12.8628    0.0000 C   0  0  0  0  0  0  0  0  0  0  0  0
   36.5707   12.0378    0.0000 O   0  0  0  0  0  0  0  0  0  0  0  0
   37.2851   13.2753    0.0000 C   0  0  0  0  0  0  0  0  0  0  0  0
   37.9996   12.8628    0.0000 C   0  0  0  0  0  0  0  0  0  0  0  0
   38.7141   13.2753    0.0000 C   0  0  0  0  0  0  0  0  0  0  0  0
   39.4285   12.8628    0.0000 C   0  0  0  0  0  0  0  0  0  0  0  0
   40.1430   13.2753    0.0000 C   0  0  0  0  0  0  0  0  0  0  0  0
   40.8575   12.8628    0.0000 C   0  0  0  0  0  0  0  0  0  0  0  0
   41.5720   13.2753    0.0000 C   0  0  0  0  0  0  0  0  0  0  0  0
   42.2864   12.8628    0.0000 C   0  0  0  0  0  0  0  0  0  0  0  0
   43.0009   13.2753    0.0000 C   0  0  0  0  0  0  0  0  0  0  0  0
   43.7154   12.8628    0.0000 C   0  0  0  0  0  0  0  0  0  0  0  0
   44.4298   13.2753    0.0000 C   0  0  0  0  0  0  0  0  0  0  0  0
   45.1443   12.8628    0.0000 C   0  0  0  0  0  0  0  0  0  0  0  0
   45.8588   13.2753    0.0000 C   0  0  0  0  0  0  0  0  0  0  0  0
   46.5733   12.8628    0.0000 C   0  0  0  0  0  0  0  0  0  0  0  0
   47.2877   13.2753    0.0000 C   0  0  0  0  0  0  0  0  0  0  0  0
   48.0022   12.8628    0.0000 C   0  0  0  0  0  0  0  0  0  0  0  0
   48.7167   13.2753    0.0000 C   0  0  0  0  0  0  0  0  0  0  0  0
  1  2  1  0  0  0  0
  2  3  1  0  0  0  0
  3  4  1  0  0  0  0
  4  5  1  0  0  0  0
  5  6  1  0  0  0  0
  6  7  1  0  0  0  0
  7  8  1  0  0  0  0
  8  9  1  0  0  0  0
  9 10  1  0  0  0  0
 10 11  1  0  0  0  0
 11 12  1  0  0  0  0
 12 13  1  0  0  0  0
 13 14  1  0  0  0  0
 14 15  1  0  0  0  0
 15 16  1  0  0  0  0
 16 17  1  0  0  0  0
 17 18  1  0  0  0  0
 18 19  2  0  0  0  0
 18 20  1  0  0  0  0
 20 21  1  0  0  0  0
 21 22  1  0  0  0  0
 22 23  1  0  0  0  0
 23 24  1  0  0  0  0
 24 25  2  0  0  0  0
 24 26  1  0  0  0  0
 26 27  1  0  0  0  0
 27 28  1  0  0  0  0
 28 29  1  0  0  0  0
 29 30  1  0  0  0  0
 30 31  1  0  0  0  0
 31 32  1  0  0  0  0
 32 33  1  0  0  0  0
 33 34  1  0  0  0  0
 34 35  1  0  0  0  0
 35 36  1  0  0  0  0
 36 37  1  0  0  0  0
 37 38  1  0  0  0  0
 38 39  1  0  0  0  0
 39 40  1  0  0  0  0
 40 41  1  0  0  0  0
 41 42  1  0  0  0  0
M  END
> <RowID>
1604

> <Original_SMILES>
CCCCCCCCCCCCCCCCCC(=O)NCCNC(=O)CCCCCCCCCCCCCCCCC

> <Canonical_QSARr>
CCCCCCCCCCCCCCCCCC(=O)NCCNC(=O)CCCCCCCCCCCCCCCCC

> <InChI_Code_QSARr>
InChI=1S/C38H76N2O2/c1-3-5-7-9-11-13-15-17-19-21-23-25-27-29-31-33-37(41)39-35-36-40-38(42)34-32-30-28-26-24-22-20-18-16-14-12-10-8-6-4-2/h3-36H2,1-2H3,(H,39,41)(H,40,42)

> <InChI Key_QSARr>
RKISUIUJZGSLEV-UHFFFAOYSA-N

> <Salt_Solvent>


> <Salt_Solvent_ID>
0

> <Number of connected components>
1

$$$$
Molecule_1607
  Mrv2316 01072400032D          

 12 12  0  0  0  0            999 V2000
    2.2625   -1.4438    0.0000 C   0  0  0  0  0  0  0  0  0  0  0  0
    1.5480   -1.0313    0.0000 C   0  0  0  0  0  0  0  0  0  0  0  0
    1.5480   -0.2062    0.0000 C   0  0  0  0  0  0  0  0  0  0  0  0
    0.8335    0.2063    0.0000 C   0  0  0  0  0  0  0  0  0  0  0  0
    0.8335    1.0313    0.0000 N   0  0  0  0  0  0  0  0  0  0  0  0
    1.5480    1.4438    0.0000 C   0  0  0  0  0  0  0  0  0  0  0  0
    1.5480    2.2687    0.0000 N   0  0  0  0  0  0  0  0  0  0  0  0
    2.2625    1.0313    0.0000 O   0  0  0  0  0  0  0  0  0  0  0  0
    0.1191   -0.2062    0.0000 N   0  0  0  0  0  0  0  0  0  0  0  0
    0.1191   -1.0312    0.0000 C   0  0  0  0  0  0  0  0  0  0  0  0
   -0.5954   -1.4437    0.0000 O   0  0  0  0  0  0  0  0  0  0  0  0
    0.8335   -1.4437    0.0000 N   0  0  0  0  0  0  0  0  0  0  0  0
  1  2  1  0  0  0  0
  3  2  1  0  0  0  0
  4  3  1  0  0  0  0
  4  5  1  0  0  0  0
  5  6  1  0  0  0  0
  6  7  1  0  0  0  0
  6  8  2  0  0  0  0
  9  4  1  0  0  0  0
 10  9  1  0  0  0  0
 10 11  2  0  0  0  0
 12 10  1  0  0  0  0
  2 12  1  0  0  0  0
M  END
> <RowID>
1607

> <Original_SMILES>
CC1CC(NC(N)=O)NC(=O)N1

> <Canonical_QSARr>
CC1CC(NC(N)=O)NC(=O)N1

> <InChI_Code_QSARr>
InChI=1S/C6H12N4O2/c1-3-2-4(9-5(7)11)10-6(12)8-3/h3-4H,2H2,1H3,(H3,7,9,11)(H2,8,10,12)

> <InChI Key_QSARr>
CZAUMIGWDFREBR-UHFFFAOYSA-N

> <Salt_Solvent>


> <Salt_Solvent_ID>
0

> <Number of connected components>
1

$$$$
Molecule_1609
  Mrv2316 01072400032D          

  8  8  0  0  0  0            999 V2000
   -0.7145    1.2375    0.0000 C   0  0  0  0  0  0  0  0  0  0  0  0
   -0.0000    0.8250    0.0000 C   0  0  0  0  0  0  0  0  0  0  0  0
   -0.0000   -0.0000    0.0000 C   0  0  0  0  0  0  0  0  0  0  0  0
    0.7145   -0.4125    0.0000 C   0  0  0  0  0  0  0  0  0  0  0  0
    1.4289   -0.0000    0.0000 C   0  0  0  0  0  0  0  0  0  0  0  0
    1.4289    0.8250    0.0000 C   0  0  0  0  0  0  0  0  0  0  0  0
    0.7145    1.2375    0.0000 C   0  0  0  0  0  0  0  0  0  0  0  0
    0.7145    2.0625    0.0000 C   0  0  0  0  0  0  0  0  0  0  0  0
  1  2  1  0  0  0  0
  3  2  1  0  0  0  0
  4  3  2  0  0  0  0
  5  4  1  0  0  0  0
  6  5  2  0  0  0  0
  7  6  1  0  0  0  0
  2  7  2  0  0  0  0
  7  8  1  0  0  0  0
M  END
> <RowID>
1609

> <Original_SMILES>
CC1C=CC=CC=1C

> <Canonical_QSARr>
CC1C=CC=CC=1C

> <InChI_Code_QSARr>
InChI=1S/C8H10/c1-7-5-3-4-6-8(7)2/h3-6H,1-2H3

> <InChI Key_QSARr>
CTQNGGLPUBDAKN-UHFFFAOYSA-N

> <Salt_Solvent>


> <Salt_Solvent_ID>
0

> <Number of connected components>
1

$$$$
Molecule_1610
  Mrv2316 01072400032D          

 12 13  0  0  0  0            999 V2000
    0.8838   -2.1500    0.0000 O   0  0  0  0  0  0  0  0  0  0  0  0
    1.1387   -1.3654    0.0000 C   0  0  0  0  0  0  0  0  0  0  0  0
    0.6538   -0.6979    0.0000 N   0  0  0  0  0  0  0  0  0  0  0  0
    1.1387   -0.0305    0.0000 S   0  0  0  0  0  0  0  0  0  0  0  0
    0.4242    0.3820    0.0000 O   0  0  0  0  0  0  0  0  0  0  0  0
    1.4743    0.7232    0.0000 O   0  0  0  0  0  0  0  0  0  0  0  0
    1.9233   -0.2854    0.0000 C   0  0  0  0  0  0  0  0  0  0  0  0
    2.6378    0.1271    0.0000 C   0  0  0  0  0  0  0  0  0  0  0  0
    3.3523   -0.2854    0.0000 C   0  0  0  0  0  0  0  0  0  0  0  0
    3.3523   -1.1104    0.0000 C   0  0  0  0  0  0  0  0  0  0  0  0
    2.6378   -1.5229    0.0000 C   0  0  0  0  0  0  0  0  0  0  0  0
    1.9233   -1.1104    0.0000 C   0  0  0  0  0  0  0  0  0  0  0  0
  1  2  2  0  0  0  0
  3  2  1  0  0  0  0
  4  3  1  0  0  0  0
  4  5  2  0  0  0  0
  4  6  2  0  0  0  0
  7  4  1  0  0  0  0
  7  8  1  0  0  0  0
  8  9  2  0  0  0  0
  9 10  1  0  0  0  0
 10 11  2  0  0  0  0
 11 12  1  0  0  0  0
  2 12  1  0  0  0  0
 12  7  2  0  0  0  0
M  END
> <RowID>
1610

> <Original_SMILES>
O=C1NS(=O)(=O)C2C=CC=CC1=2

> <Canonical_QSARr>
O=C1NS(=O)(=O)C2C=CC=CC1=2

> <InChI_Code_QSARr>
InChI=1S/C7H5NO3S/c9-7-5-3-1-2-4-6(5)12(10,11)8-7/h1-4H,(H,8,9)

> <InChI Key_QSARr>
CVHZOJJKTDOEJC-UHFFFAOYSA-N

> <Salt_Solvent>


> <Salt_Solvent_ID>
0

> <Number of connected components>
1

$$$$
Molecule_1611
  Mrv2316 01072400032D          

 14 14  0  0  0  0            999 V2000
    1.5310    4.1250    0.0000 O   0  5  0  0  0  0  0  0  0  0  0  0
    0.8165    3.7125    0.0000 S   0  0  0  0  0  0  0  0  0  0  0  0
    0.4040    4.4270    0.0000 O   0  0  0  0  0  0  0  0  0  0  0  0
    1.2290    2.9980    0.0000 O   0  0  0  0  0  0  0  0  0  0  0  0
    0.1021    3.3000    0.0000 C   0  0  0  0  0  0  0  0  0  0  0  0
    0.1021    2.4750    0.0000 C   0  0  0  0  0  0  0  0  0  0  0  0
    0.8165    2.0625    0.0000 O   0  0  0  0  0  0  0  0  0  0  0  0
   -0.6124    2.0625    0.0000 C   0  0  0  0  0  0  0  0  0  0  0  0
   -0.6124    1.2375    0.0000 N   0  3  0  0  0  0  0  0  0  0  0  0
   -1.3269    0.8250    0.0000 C   0  0  0  0  0  0  0  0  0  0  0  0
   -1.3269   -0.0000    0.0000 C   0  0  0  0  0  0  0  0  0  0  0  0
   -0.6124   -0.4125    0.0000 C   0  0  0  0  0  0  0  0  0  0  0  0
    0.1021    0.0000    0.0000 C   0  0  0  0  0  0  0  0  0  0  0  0
    0.1021    0.8250    0.0000 C   0  0  0  0  0  0  0  0  0  0  0  0
  1  2  1  0  0  0  0
  2  3  2  0  0  0  0
  2  4  2  0  0  0  0
  2  5  1  0  0  0  0
  5  6  1  0  0  0  0
  6  7  1  0  0  0  0
  6  8  1  0  0  0  0
  8  9  1  0  0  0  0
 10  9  1  0  0  0  0
 11 10  2  0  0  0  0
 12 11  1  0  0  0  0
 13 12  2  0  0  0  0
 14 13  1  0  0  0  0
  9 14  2  0  0  0  0
M  CHG  2   1  -1   9   1
M  END
> <RowID>
1611

> <Original_SMILES>
[O-]S(=O)(=O)CC(O)C[N+]1C=CC=CC=1

> <Canonical_QSARr>
[O-]S(=O)(=O)CC(O)C[N+]1C=CC=CC=1

> <InChI_Code_QSARr>
InChI=1S/C8H11NO4S/c10-8(7-14(11,12)13)6-9-4-2-1-3-5-9/h1-5,8,10H,6-7H2

> <InChI Key_QSARr>
RJPRZHQPROLZRW-UHFFFAOYSA-N

> <Salt_Solvent>


> <Salt_Solvent_ID>
0

> <Number of connected components>
1

$$$$
Molecule_1612
  Mrv2316 01072400032D          

 51 54  0  0  0  0            999 V2000
    8.5737   -5.7750    0.0000 O   0  0  0  0  0  0  0  0  0  0  0  0
    7.8592   -5.3625    0.0000 S   0  0  0  0  0  0  0  0  0  0  0  0
    8.2717   -4.6480    0.0000 O   0  0  0  0  0  0  0  0  0  0  0  0
    7.4467   -6.0770    0.0000 O   0  0  0  0  0  0  0  0  0  0  0  0
    7.1447   -4.9500    0.0000 C   0  0  0  0  0  0  0  0  0  0  0  0
    7.1447   -4.1250    0.0000 C   0  0  0  0  0  0  0  0  0  0  0  0
    6.4302   -3.7125    0.0000 C   0  0  0  0  0  0  0  0  0  0  0  0
    6.4302   -2.8875    0.0000 C   0  0  0  0  0  0  0  0  0  0  0  0
    5.7158   -2.4750    0.0000 O   0  0  0  0  0  0  0  0  0  0  0  0
    7.1447   -2.4750    0.0000 O   0  0  0  0  0  0  0  0  0  0  0  0
    5.7158   -4.1250    0.0000 C   0  0  0  0  0  0  0  0  0  0  0  0
    5.0013   -3.7125    0.0000 O   0  0  0  0  0  0  0  0  0  0  0  0
    5.7158   -4.9500    0.0000 C   0  0  0  0  0  0  0  0  0  0  0  0
    5.0013   -5.3625    0.0000 N   0  0  0  0  0  0  0  0  0  0  0  0
    4.2868   -4.9500    0.0000 C   0  0  0  0  0  0  0  0  0  0  0  0
    4.2868   -4.1250    0.0000 N   0  0  0  0  0  0  0  0  0  0  0  0
    3.5724   -3.7125    0.0000 C   0  0  0  0  0  0  0  0  0  0  0  0
    3.5724   -2.8875    0.0000 N   0  0  0  0  0  0  0  0  0  0  0  0
    2.8579   -2.4750    0.0000 C   0  0  0  0  0  0  0  0  0  0  0  0
    2.1434   -2.8875    0.0000 C   0  0  0  0  0  0  0  0  0  0  0  0
    2.1434   -3.7125    0.0000 O   0  0  0  0  0  0  0  0  0  0  0  0
    1.4289   -2.4750    0.0000 C   0  0  0  0  0  0  0  0  0  0  0  0
    0.7145   -2.8875    0.0000 C   0  0  0  0  0  0  0  0  0  0  0  0
    0.7145   -3.7125    0.0000 O   0  0  0  0  0  0  0  0  0  0  0  0
    0.0000   -2.4750    0.0000 O   0  0  0  0  0  0  0  0  0  0  0  0
    1.4289   -1.6500    0.0000 C   0  0  0  0  0  0  0  0  0  0  0  0
    2.1434   -1.2375    0.0000 C   0  0  0  0  0  0  0  0  0  0  0  0
    2.1434   -0.4125    0.0000 S   0  0  0  0  0  0  0  0  0  0  0  0
    2.1434    0.4125    0.0000 O   0  0  0  0  0  0  0  0  0  0  0  0
    1.3184   -0.4125    0.0000 O   0  0  0  0  0  0  0  0  0  0  0  0
    2.9684   -0.4125    0.0000 O   0  0  0  0  0  0  0  0  0  0  0  0
    2.8579   -1.6500    0.0000 C   0  0  0  0  0  0  0  0  0  0  0  0
    2.8579   -4.1250    0.0000 N   0  0  0  0  0  0  0  0  0  0  0  0
    2.8579   -4.9500    0.0000 C   0  0  0  0  0  0  0  0  0  0  0  0
    2.1434   -5.3625    0.0000 N   0  0  0  0  0  0  0  0  0  0  0  0
    2.1434   -6.1875    0.0000 C   0  0  0  0  0  0  0  0  0  0  0  0
    1.4289   -6.6000    0.0000 C   0  0  0  0  0  0  0  0  0  0  0  0
    0.7145   -6.1875    0.0000 O   0  0  0  0  0  0  0  0  0  0  0  0
    1.4289   -7.4250    0.0000 C   0  0  0  0  0  0  0  0  0  0  0  0
    0.7145   -7.8375    0.0000 C   0  0  0  0  0  0  0  0  0  0  0  0
    0.7145   -8.6625    0.0000 O   0  0  0  0  0  0  0  0  0  0  0  0
    0.0000   -7.4250    0.0000 O   0  0  0  0  0  0  0  0  0  0  0  0
    2.1434   -7.8375    0.0000 C   0  0  0  0  0  0  0  0  0  0  0  0
    2.8579   -7.4250    0.0000 C   0  0  0  0  0  0  0  0  0  0  0  0
    3.5724   -7.8375    0.0000 S   0  0  0  0  0  0  0  0  0  0  0  0
    4.2868   -8.2500    0.0000 O   0  0  0  0  0  0  0  0  0  0  0  0
    3.9849   -7.1230    0.0000 O   0  0  0  0  0  0  0  0  0  0  0  0
    3.1599   -8.5520    0.0000 O   0  0  0  0  0  0  0  0  0  0  0  0
    2.8579   -6.6000    0.0000 C   0  0  0  0  0  0  0  0  0  0  0  0
    3.5724   -5.3625    0.0000 N   0  0  0  0  0  0  0  0  0  0  0  0
    6.4302   -5.3625    0.0000 C   0  0  0  0  0  0  0  0  0  0  0  0
  1  2  1  0  0  0  0
  2  3  2  0  0  0  0
  2  4  2  0  0  0  0
  2  5  1  0  0  0  0
  6  5  1  0  0  0  0
  7  6  2  0  0  0  0
  7  8  1  0  0  0  0
  8  9  2  0  0  0  0
  8 10  1  0  0  0  0
 11  7  1  0  0  0  0
 11 12  1  0  0  0  0
 13 11  2  0  0  0  0
 13 14  1  0  0  0  0
 14 15  1  0  0  0  0
 16 15  1  0  0  0  0
 17 16  2  0  0  0  0
 17 18  1  0  0  0  0
 18 19  1  0  0  0  0
 20 19  2  0  0  0  0
 20 21  1  0  0  0  0
 22 20  1  0  0  0  0
 22 23  1  0  0  0  0
 23 24  2  0  0  0  0
 23 25  1  0  0  0  0
 26 22  2  0  0  0  0
 27 26  1  0  0  0  0
 27 28  1  0  0  0  0
 28 29  1  0  0  0  0
 28 30  2  0  0  0  0
 28 31  2  0  0  0  0
 32 27  2  0  0  0  0
 19 32  1  0  0  0  0
 33 17  1  0  0  0  0
 34 33  2  0  0  0  0
 34 35  1  0  0  0  0
 35 36  1  0  0  0  0
 37 36  1  0  0  0  0
 37 38  1  0  0  0  0
 39 37  2  0  0  0  0
 39 40  1  0  0  0  0
 40 41  2  0  0  0  0
 40 42  1  0  0  0  0
 43 39  1  0  0  0  0
 44 43  2  0  0  0  0
 44 45  1  0  0  0  0
 45 46  1  0  0  0  0
 45 47  2  0  0  0  0
 45 48  2  0  0  0  0
 49 44  1  0  0  0  0
 36 49  2  0  0  0  0
 50 34  1  0  0  0  0
 15 50  2  0  0  0  0
 51 13  1  0  0  0  0
  5 51  2  0  0  0  0
M  END
> <RowID>
1612

> <Original_SMILES>
[Na+].[Na+].[Na+].[O-]S(=O)(=O)C1=CC(NC2N=C(NC3C=C(C=C(C=3O)C(O)=O)S([O-])(=O)=O)N=C(NC3C=C(C=C(C=3O)C(O)=O)S([O-])(=O)=O)N=2)=C(O)C(=C1)C(O)=O

> <Canonical_QSARr>
OC1C(=CC(=CC=1NC1N=C(NC2=CC(=CC(=C2O)C(O)=O)S(O)(=O)=O)N=C(NC2C=C(C=C(C=2O)C(O)=O)S(O)(=O)=O)N=1)S(O)(=O)=O)C(O)=O

> <InChI_Code_QSARr>
InChI=1S/C24H18N6O18S3/c31-16-10(19(34)35)1-7(49(40,41)42)4-13(16)25-22-28-23(26-14-5-8(50(43,44)45)2-11(17(14)32)20(36)37)30-24(29-22)27-15-6-9(51(46,47)48)3-12(18(15)33)21(38)39/h1-6,31-33H,(H,34,35)(H,36,37)(H,38,39)(H,40,41,42)(H,43,44,45)(H,46,47,48)(H3,25,26,27,28,29,30)

> <InChI Key_QSARr>
YLSMKTQVBIUBLQ-UHFFFAOYSA-N

> <Salt_Solvent>
[Na+]

> <Salt_Solvent_ID>
110

> <Number of connected components>
4

$$$$
Molecule_1613
  Mrv2316 01072400032D          

 11 11  0  0  0  0            999 V2000
   -0.9743    2.7375    0.0000 C   0  0  0  0  0  0  0  0  0  0  0  0
   -0.2598    2.3250    0.0000 O   0  0  0  0  0  0  0  0  0  0  0  0
   -0.2598    1.5000    0.0000 C   0  0  0  0  0  0  0  0  0  0  0  0
   -0.9743    1.0875    0.0000 O   0  0  0  0  0  0  0  0  0  0  0  0
    0.4547    1.0875    0.0000 C   0  0  0  0  0  0  0  0  0  0  0  0
    0.4547    0.2625    0.0000 C   0  0  0  0  0  0  0  0  0  0  0  0
    1.1691   -0.1500    0.0000 C   0  0  0  0  0  0  0  0  0  0  0  0
    1.8836    0.2625    0.0000 C   0  0  0  0  0  0  0  0  0  0  0  0
    1.8836    1.0875    0.0000 C   0  0  0  0  0  0  0  0  0  0  0  0
    1.1691    1.5000    0.0000 C   0  0  0  0  0  0  0  0  0  0  0  0
    1.1691    2.3250    0.0000 O   0  0  0  0  0  0  0  0  0  0  0  0
  1  2  1  0  0  0  0
  2  3  1  0  0  0  0
  3  4  2  0  0  0  0
  3  5  1  0  0  0  0
  6  5  1  0  0  0  0
  7  6  2  0  0  0  0
  8  7  1  0  0  0  0
  9  8  2  0  0  0  0
 10  9  1  0  0  0  0
  5 10  2  0  0  0  0
 10 11  1  0  0  0  0
M  END
> <RowID>
1613

> <Original_SMILES>
COC(=O)C1C=CC=CC=1O

> <Canonical_QSARr>
COC(=O)C1C=CC=CC=1O

> <InChI_Code_QSARr>
InChI=1S/C8H8O3/c1-11-8(10)6-4-2-3-5-7(6)9/h2-5,9H,1H3

> <InChI Key_QSARr>
OSWPMRLSEDHDFF-UHFFFAOYSA-N

> <Salt_Solvent>


> <Salt_Solvent_ID>
0

> <Number of connected components>
1

$$$$
Molecule_1614
  Mrv2316 01072400032D          

 28 31  0  0  0  0            999 V2000
   -5.5808    0.1707    0.0000 O   0  0  0  0  0  0  0  0  0  0  0  0
   -4.8664   -0.2418    0.0000 S   0  0  0  0  0  0  0  0  0  0  0  0
   -5.2789   -0.9563    0.0000 O   0  0  0  0  0  0  0  0  0  0  0  0
   -4.4539    0.4727    0.0000 O   0  0  0  0  0  0  0  0  0  0  0  0
   -4.1519   -0.6543    0.0000 C   0  0  0  0  0  0  0  0  0  0  0  0
   -4.1519   -1.4793    0.0000 C   0  0  0  0  0  0  0  0  0  0  0  0
   -3.4374   -1.8918    0.0000 C   0  0  0  0  0  0  0  0  0  0  0  0
   -2.7230   -1.4793    0.0000 C   0  0  0  0  0  0  0  0  0  0  0  0
   -2.7230   -0.6543    0.0000 C   0  0  0  0  0  0  0  0  0  0  0  0
   -1.9383   -0.3994    0.0000 C   0  0  0  0  0  0  0  0  0  0  0  0
   -1.4534   -1.0668    0.0000 C   0  0  0  0  0  0  0  0  0  0  0  0
   -1.9383   -1.7343    0.0000 N   0  0  0  0  0  0  0  0  0  0  0  0
   -0.6284   -1.0668    0.0000 C   0  0  0  0  0  0  0  0  0  0  0  0
   -0.1435   -1.7343    0.0000 C   0  0  0  0  0  0  0  0  0  0  0  0
   -0.3984   -2.5189    0.0000 O   0  0  0  0  0  0  0  0  0  0  0  0
    0.6411   -1.4793    0.0000 C   0  0  0  0  0  0  0  0  0  0  0  0
    0.6411   -0.6543    0.0000 C   0  0  0  0  0  0  0  0  0  0  0  0
    1.3556   -0.2418    0.0000 C   0  0  0  0  0  0  0  0  0  0  0  0
    2.0701   -0.6543    0.0000 C   0  0  0  0  0  0  0  0  0  0  0  0
    2.0701   -1.4793    0.0000 C   0  0  0  0  0  0  0  0  0  0  0  0
    1.3556   -1.8918    0.0000 C   0  0  0  0  0  0  0  0  0  0  0  0
    2.7845   -1.8918    0.0000 S   0  0  0  0  0  0  0  0  0  0  0  0
    3.4990   -2.3043    0.0000 O   0  0  0  0  0  0  0  0  0  0  0  0
    2.3720   -2.6063    0.0000 O   0  0  0  0  0  0  0  0  0  0  0  0
    3.1970   -1.1773    0.0000 O   0  0  0  0  0  0  0  0  0  0  0  0
   -0.1435   -0.3994    0.0000 N   0  0  0  0  0  0  0  0  0  0  0  0
   -1.6834    0.3852    0.0000 O   0  0  0  0  0  0  0  0  0  0  0  0
   -3.4374   -0.2418    0.0000 C   0  0  0  0  0  0  0  0  0  0  0  0
  1  2  1  0  0  0  0
  2  3  2  0  0  0  0
  2  4  2  0  0  0  0
  2  5  1  0  0  0  0
  6  5  2  0  0  0  0
  7  6  1  0  0  0  0
  8  7  2  0  0  0  0
  8  9  1  0  0  0  0
  9 10  1  0  0  0  0
 10 11  1  0  0  0  0
 11 12  2  0  0  0  0
 12  8  1  0  0  0  0
 11 13  1  0  0  0  0
 14 13  1  0  0  0  0
 14 15  2  0  0  0  0
 16 14  1  0  0  0  0
 16 17  2  0  0  0  0
 17 18  1  0  0  0  0
 18 19  2  0  0  0  0
 19 20  1  0  0  0  0
 20 21  2  0  0  0  0
 21 16  1  0  0  0  0
 20 22  1  0  0  0  0
 22 23  1  0  0  0  0
 22 24  2  0  0  0  0
 22 25  2  0  0  0  0
 26 17  1  0  0  0  0
 13 26  1  0  0  0  0
 10 27  2  0  0  0  0
 28  9  2  0  0  0  0
  5 28  1  0  0  0  0
M  END
> <RowID>
1614

> <Original_SMILES>
[Na+].[Na+].[O-]S(=O)(=O)C1C=C2C(=CC=1)NC(=C1NC3=CC=C(C=C3C1=O)S([O-])(=O)=O)C2=O

> <Canonical_QSARr>
OS(=O)(=O)C1=CC2=C(C=C1)NC(C1=NC3=CC=C(C=C3C1=O)S(O)(=O)=O)C2=O

> <InChI_Code_QSARr>
InChI=1S/C16H10N2O8S2/c19-15-9-5-7(27(21,22)23)1-3-11(9)17-13(15)14-16(20)10-6-8(28(24,25)26)2-4-12(10)18-14/h1-6,13,17H,(H,21,22,23)(H,24,25,26)

> <InChI Key_QSARr>
JNWVIISDWNCOCN-UHFFFAOYSA-N

> <Salt_Solvent>
[Na+]

> <Salt_Solvent_ID>
110

> <Number of connected components>
3

$$$$
Molecule_1615
  Mrv2316 01072400032D          

 28 28  0  0  0  0            999 V2000
   -4.8227    7.3219    0.0000 C   0  0  0  0  0  0  0  0  0  0  0  0
   -4.8227    6.4969    0.0000 C   0  0  0  0  0  0  0  0  0  0  0  0
   -4.1082    6.0844    0.0000 C   0  0  0  0  0  0  0  0  0  0  0  0
   -4.1082    5.2594    0.0000 C   0  0  0  0  0  0  0  0  0  0  0  0
   -3.3937    4.8469    0.0000 C   0  0  0  0  0  0  0  0  0  0  0  0
   -3.3937    4.0219    0.0000 C   0  0  0  0  0  0  0  0  0  0  0  0
   -2.6793    3.6094    0.0000 O   0  0  0  0  0  0  0  0  0  0  0  0
   -2.6793    2.7844    0.0000 C   0  0  0  0  0  0  0  0  0  0  0  0
   -3.3937    2.3719    0.0000 O   0  0  0  0  0  0  0  0  0  0  0  0
   -1.9648    2.3719    0.0000 C   0  0  0  0  0  0  0  0  0  0  0  0
   -1.9648    1.5469    0.0000 C   0  0  0  0  0  0  0  0  0  0  0  0
   -1.2503    1.1344    0.0000 C   0  0  0  0  0  0  0  0  0  0  0  0
   -0.5358    1.5469    0.0000 C   0  0  0  0  0  0  0  0  0  0  0  0
    0.1786    1.1344    0.0000 C   0  0  0  0  0  0  0  0  0  0  0  0
    0.1786    0.3094    0.0000 O   0  0  0  0  0  0  0  0  0  0  0  0
    0.8931    1.5469    0.0000 O   0  0  0  0  0  0  0  0  0  0  0  0
    1.6076    1.1344    0.0000 C   0  0  0  0  0  0  0  0  0  0  0  0
    2.3220    1.5469    0.0000 C   0  0  0  0  0  0  0  0  0  0  0  0
    3.0365    1.1344    0.0000 C   0  0  0  0  0  0  0  0  0  0  0  0
    3.7510    1.5469    0.0000 C   0  0  0  0  0  0  0  0  0  0  0  0
    4.4655    1.1344    0.0000 C   0  0  0  0  0  0  0  0  0  0  0  0
    5.1799    1.5469    0.0000 C   0  0  0  0  0  0  0  0  0  0  0  0
    2.3220    2.3719    0.0000 C   0  0  0  0  0  0  0  0  0  0  0  0
    3.0365    2.7844    0.0000 C   0  0  0  0  0  0  0  0  0  0  0  0
   -0.5358    2.3719    0.0000 C   0  0  0  0  0  0  0  0  0  0  0  0
   -1.2503    2.7844    0.0000 C   0  0  0  0  0  0  0  0  0  0  0  0
   -2.6793    5.2594    0.0000 C   0  0  0  0  0  0  0  0  0  0  0  0
   -1.9648    4.8469    0.0000 C   0  0  0  0  0  0  0  0  0  0  0  0
  1  2  1  0  0  0  0
  2  3  1  0  0  0  0
  3  4  1  0  0  0  0
  4  5  1  0  0  0  0
  5  6  1  0  0  0  0
  6  7  1  0  0  0  0
  7  8  1  0  0  0  0
  8  9  2  0  0  0  0
  8 10  1  0  0  0  0
 11 10  1  0  0  0  0
 12 11  2  0  0  0  0
 13 12  1  0  0  0  0
 13 14  1  0  0  0  0
 14 15  2  0  0  0  0
 14 16  1  0  0  0  0
 16 17  1  0  0  0  0
 17 18  1  0  0  0  0
 18 19  1  0  0  0  0
 19 20  1  0  0  0  0
 20 21  1  0  0  0  0
 21 22  1  0  0  0  0
 18 23  1  0  0  0  0
 23 24  1  0  0  0  0
 25 13  2  0  0  0  0
 26 25  1  0  0  0  0
 10 26  2  0  0  0  0
  5 27  1  0  0  0  0
 27 28  1  0  0  0  0
M  END
> <RowID>
1615

> <Original_SMILES>
CCCCC(COC(=O)C1C=CC(=CC=1)C(=O)OCC(CCCC)CC)CC

> <Canonical_QSARr>
CCCCC(COC(=O)C1C=CC(=CC=1)C(=O)OCC(CCCC)CC)CC

> <InChI_Code_QSARr>
InChI=1S/C24H38O4/c1-5-9-11-19(7-3)17-27-23(25)21-13-15-22(16-14-21)24(26)28-18-20(8-4)12-10-6-2/h13-16,19-20H,5-12,17-18H2,1-4H3

> <InChI Key_QSARr>
RWPICVVBGZBXNA-UHFFFAOYSA-N

> <Salt_Solvent>


> <Salt_Solvent_ID>
0

> <Number of connected components>
1

$$$$
Molecule_1616
  Mrv2316 01072400032D          

 23 24  0  0  0  0            999 V2000
   -3.5724    1.8114    0.0000 C   0  0  0  0  0  0  0  0  0  0  0  0
   -3.5724    0.9864    0.0000 C   0  0  0  0  0  0  0  0  0  0  0  0
   -2.8579    0.5739    0.0000 O   0  0  0  0  0  0  0  0  0  0  0  0
   -2.8579   -0.2511    0.0000 C   0  0  0  0  0  0  0  0  0  0  0  0
   -3.5724   -0.6636    0.0000 C   0  0  0  0  0  0  0  0  0  0  0  0
   -3.5724   -1.4886    0.0000 C   0  0  0  0  0  0  0  0  0  0  0  0
   -2.8579   -1.9011    0.0000 C   0  0  0  0  0  0  0  0  0  0  0  0
   -2.1434   -1.4886    0.0000 C   0  0  0  0  0  0  0  0  0  0  0  0
   -2.1434   -0.6636    0.0000 C   0  0  0  0  0  0  0  0  0  0  0  0
   -1.4290   -0.2511    0.0000 N   0  0  0  0  0  0  0  0  0  0  0  0
   -0.7145   -0.6636    0.0000 C   0  0  0  0  0  0  0  0  0  0  0  0
   -0.7145   -1.4886    0.0000 O   0  0  0  0  0  0  0  0  0  0  0  0
   -0.0000   -0.2511    0.0000 C   0  0  0  0  0  0  0  0  0  0  0  0
   -0.0000    0.5739    0.0000 O   0  0  0  0  0  0  0  0  0  0  0  0
    0.7145   -0.6636    0.0000 N   0  0  0  0  0  0  0  0  0  0  0  0
    0.7145   -1.4886    0.0000 C   0  0  0  0  0  0  0  0  0  0  0  0
   -0.0000   -1.9011    0.0000 C   0  0  0  0  0  0  0  0  0  0  0  0
   -0.0000   -2.7261    0.0000 C   0  0  0  0  0  0  0  0  0  0  0  0
    0.7145   -3.1386    0.0000 C   0  0  0  0  0  0  0  0  0  0  0  0
    1.4289   -2.7261    0.0000 C   0  0  0  0  0  0  0  0  0  0  0  0
    1.4289   -1.9011    0.0000 C   0  0  0  0  0  0  0  0  0  0  0  0
    2.1434   -1.4886    0.0000 C   0  0  0  0  0  0  0  0  0  0  0  0
    2.1434   -0.6636    0.0000 C   0  0  0  0  0  0  0  0  0  0  0  0
  1  2  1  0  0  0  0
  2  3  1  0  0  0  0
  3  4  1  0  0  0  0
  5  4  1  0  0  0  0
  6  5  2  0  0  0  0
  7  6  1  0  0  0  0
  8  7  2  0  0  0  0
  9  8  1  0  0  0  0
  4  9  2  0  0  0  0
  9 10  1  0  0  0  0
 10 11  1  0  0  0  0
 11 12  2  0  0  0  0
 11 13  1  0  0  0  0
 13 14  2  0  0  0  0
 13 15  1  0  0  0  0
 15 16  1  0  0  0  0
 17 16  1  0  0  0  0
 18 17  2  0  0  0  0
 19 18  1  0  0  0  0
 20 19  2  0  0  0  0
 21 20  1  0  0  0  0
 16 21  2  0  0  0  0
 21 22  1  0  0  0  0
 22 23  1  0  0  0  0
M  END
> <RowID>
1616

> <Original_SMILES>
CCOC1C=CC=CC=1NC(=O)C(=O)NC1C=CC=CC=1CC

> <Canonical_QSARr>
CCOC1C=CC=CC=1NC(=O)C(=O)NC1C=CC=CC=1CC

> <InChI_Code_QSARr>
InChI=1S/C18H20N2O3/c1-3-13-9-5-6-10-14(13)19-17(21)18(22)20-15-11-7-8-12-16(15)23-4-2/h5-12H,3-4H2,1-2H3,(H,19,21)(H,20,22)

> <InChI Key_QSARr>
YIMHRDBSVCPJOV-UHFFFAOYSA-N

> <Salt_Solvent>


> <Salt_Solvent_ID>
0

> <Number of connected components>
1

$$$$
Molecule_1617
  Mrv2316 01072400032D          

 17 17  0  0  0  0            999 V2000
    1.7259    2.7627    0.0000 O   0  0  0  0  0  0  0  0  0  0  0  0
    2.1554    2.0583    0.0000 C   0  0  0  0  0  0  0  0  0  0  0  0
    1.7602    1.3341    0.0000 C   0  0  0  0  0  0  0  0  0  0  0  0
    0.9355    1.3143    0.0000 C   0  0  0  0  0  0  0  0  0  0  0  0
    0.5403    0.5901    0.0000 C   0  0  0  0  0  0  0  0  0  0  0  0
    0.9699   -0.1142    0.0000 C   0  0  0  0  0  0  0  0  0  0  0  0
    0.5747   -0.8384    0.0000 C   0  0  0  0  0  0  0  0  0  0  0  0
    1.0042   -1.5428    0.0000 C   0  0  0  0  0  0  0  0  0  0  0  0
    1.8290   -1.5229    0.0000 C   0  0  0  0  0  0  0  0  0  0  0  0
    2.2585   -2.2273    0.0000 C   0  0  0  0  0  0  0  0  0  0  0  0
    3.0833   -2.2074    0.0000 C   0  0  0  0  0  0  0  0  0  0  0  0
    3.4785   -1.4832    0.0000 C   0  0  0  0  0  0  0  0  0  0  0  0
    3.0489   -0.7789    0.0000 C   0  0  0  0  0  0  0  0  0  0  0  0
    3.4441   -0.0547    0.0000 C   0  0  0  0  0  0  0  0  0  0  0  0
    3.0146    0.6496    0.0000 C   0  0  0  0  0  0  0  0  0  0  0  0
    3.4098    1.3738    0.0000 C   0  0  0  0  0  0  0  0  0  0  0  0
    2.9802    2.0782    0.0000 O   0  0  0  0  0  0  0  0  0  0  0  0
  1  2  2  0  0  0  0
  3  2  1  0  0  0  0
  4  3  1  0  0  0  0
  5  4  1  0  0  0  0
  6  5  1  0  0  0  0
  7  6  1  0  0  0  0
  8  7  1  0  0  0  0
  9  8  1  0  0  0  0
 10  9  1  0  0  0  0
 11 10  1  0  0  0  0
 12 11  1  0  0  0  0
 13 12  1  0  0  0  0
 14 13  1  0  0  0  0
 15 14  1  0  0  0  0
 16 15  1  0  0  0  0
 17 16  1  0  0  0  0
  2 17  1  0  0  0  0
M  END
> <RowID>
1617

> <Original_SMILES>
O=C1CCCCCCCCCCCCCCO1

> <Canonical_QSARr>
O=C1CCCCCCCCCCCCCCO1

> <InChI_Code_QSARr>
InChI=1S/C15H28O2/c16-15-13-11-9-7-5-3-1-2-4-6-8-10-12-14-17-15/h1-14H2

> <InChI Key_QSARr>
FKUPPRZPSYCDRS-UHFFFAOYSA-N

> <Salt_Solvent>


> <Salt_Solvent_ID>
0

> <Number of connected components>
1

$$$$
Molecule_1618
  Mrv2316 01072400032D          

 44 48  0  0  0  0            999 V2000
    3.8484   -8.4469    0.0000 O   0  0  0  0  0  0  0  0  0  0  0  0
    3.1339   -8.0344    0.0000 S   0  0  0  0  0  0  0  0  0  0  0  0
    3.5464   -7.3199    0.0000 O   0  0  0  0  0  0  0  0  0  0  0  0
    2.7214   -8.7488    0.0000 O   0  0  0  0  0  0  0  0  0  0  0  0
    2.4195   -7.6219    0.0000 C   0  0  0  0  0  0  0  0  0  0  0  0
    2.4195   -6.7969    0.0000 C   0  0  0  0  0  0  0  0  0  0  0  0
    1.7050   -6.3844    0.0000 C   0  0  0  0  0  0  0  0  0  0  0  0
    0.9905   -6.7969    0.0000 C   0  0  0  0  0  0  0  0  0  0  0  0
    0.2760   -6.3844    0.0000 N   0  0  0  0  0  0  0  0  0  0  0  0
    0.2760   -5.5594    0.0000 C   0  0  0  0  0  0  0  0  0  0  0  0
   -0.4384   -5.1469    0.0000 C   0  0  0  0  0  0  0  0  0  0  0  0
   -0.4384   -4.3219    0.0000 C   0  0  0  0  0  0  0  0  0  0  0  0
   -1.1529   -3.9094    0.0000 C   0  0  0  0  0  0  0  0  0  0  0  0
   -1.1529   -3.0844    0.0000 N   0  0  0  0  0  0  0  0  0  0  0  0
   -1.8674   -2.6719    0.0000 N   0  0  0  0  0  0  0  0  0  0  0  0
   -1.8674   -1.8469    0.0000 C   0  0  0  0  0  0  0  0  0  0  0  0
   -1.1529   -1.4344    0.0000 C   0  0  0  0  0  0  0  0  0  0  0  0
   -1.1529   -0.6094    0.0000 C   0  0  0  0  0  0  0  0  0  0  0  0
   -0.4384   -0.1969    0.0000 C   0  0  0  0  0  0  0  0  0  0  0  0
    0.2760   -0.6094    0.0000 C   0  0  0  0  0  0  0  0  0  0  0  0
    0.2760   -1.4344    0.0000 C   0  0  0  0  0  0  0  0  0  0  0  0
   -0.4384   -1.8469    0.0000 C   0  0  0  0  0  0  0  0  0  0  0  0
   -1.8674   -0.1969    0.0000 C   0  0  0  0  0  0  0  0  0  0  0  0
   -2.5818   -0.6094    0.0000 C   0  0  0  0  0  0  0  0  0  0  0  0
   -3.2963   -0.1969    0.0000 C   0  0  0  0  0  0  0  0  0  0  0  0
   -3.2963    0.6281    0.0000 N   0  0  0  0  0  0  0  0  0  0  0  0
   -4.0108    1.0406    0.0000 C   0  0  0  0  0  0  0  0  0  0  0  0
   -4.0108    1.8656    0.0000 C   0  0  0  0  0  0  0  0  0  0  0  0
   -4.7253    2.2781    0.0000 C   0  0  0  0  0  0  0  0  0  0  0  0
   -5.4397    1.8656    0.0000 C   0  0  0  0  0  0  0  0  0  0  0  0
   -6.1542    2.2781    0.0000 O   0  0  0  0  0  0  0  0  0  0  0  0
   -6.8687    1.8656    0.0000 C   0  0  0  0  0  0  0  0  0  0  0  0
   -5.4397    1.0406    0.0000 C   0  0  0  0  0  0  0  0  0  0  0  0
   -4.7253    0.6281    0.0000 C   0  0  0  0  0  0  0  0  0  0  0  0
   -4.0108   -0.6094    0.0000 O   0  0  0  0  0  0  0  0  0  0  0  0
   -2.5818   -1.4344    0.0000 C   0  0  0  0  0  0  0  0  0  0  0  0
   -3.2963   -1.8469    0.0000 O   0  0  0  0  0  0  0  0  0  0  0  0
   -1.8674   -4.3219    0.0000 C   0  0  0  0  0  0  0  0  0  0  0  0
   -2.5818   -3.9094    0.0000 C   0  0  0  0  0  0  0  0  0  0  0  0
   -1.8674   -5.1469    0.0000 C   0  0  0  0  0  0  0  0  0  0  0  0
   -1.1529   -5.5594    0.0000 C   0  0  0  0  0  0  0  0  0  0  0  0
    0.9905   -5.1469    0.0000 O   0  0  0  0  0  0  0  0  0  0  0  0
    0.9905   -7.6219    0.0000 C   0  0  0  0  0  0  0  0  0  0  0  0
    1.7050   -8.0344    0.0000 C   0  0  0  0  0  0  0  0  0  0  0  0
  1  2  1  0  0  0  0
  2  3  2  0  0  0  0
  2  4  2  0  0  0  0
  2  5  1  0  0  0  0
  6  5  2  0  0  0  0
  7  6  1  0  0  0  0
  8  7  2  0  0  0  0
  8  9  1  0  0  0  0
  9 10  1  0  0  0  0
 10 11  1  0  0  0  0
 12 11  2  0  0  0  0
 13 12  1  0  0  0  0
 14 13  1  4  0  0  0
 14 15  2  0  0  0  0
 15 16  1  0  0  0  0
 17 16  1  0  0  0  0
 17 18  1  0  0  0  0
 18 19  2  0  0  0  0
 19 20  1  0  0  0  0
 20 21  2  0  0  0  0
 21 22  1  0  0  0  0
 22 17  2  0  0  0  0
 23 18  1  0  0  0  0
 24 23  2  0  0  0  0
 24 25  1  0  0  0  0
 25 26  1  0  0  0  0
 26 27  1  0  0  0  0
 28 27  2  0  0  0  0
 29 28  1  0  0  0  0
 30 29  2  0  0  0  0
 30 31  1  0  0  0  0
 31 32  1  0  0  0  0
 33 30  1  0  0  0  0
 34 33  2  0  0  0  0
 27 34  1  0  0  0  0
 25 35  2  0  0  0  0
 36 24  1  0  0  0  0
 16 36  2  0  0  0  0
 36 37  1  0  0  0  0
 38 13  2  0  0  0  0
 38 39  1  0  0  0  0
 40 38  1  0  0  0  0
 41 40  2  0  0  0  0
 11 41  1  0  0  0  0
 10 42  2  0  0  0  0
 43  8  1  0  0  0  0
 44 43  2  0  0  0  0
  5 44  1  0  0  0  0
M  END
> <RowID>
1618

> <Original_SMILES>
[Ca+2].CC1C=CC(=CC=1N=NC1C2=CC=CC=C2C=C(C(=O)NC2C=CC(=CC=2)OC)C=1O)C(=O)NC1C=CC(=CC=1)S([O-])(=O)=O.CC1C=CC(=CC=1N=NC1C2=CC=CC=C2C=C(C(=O)NC2C=CC(=CC=2)OC)C=1O)C(=O)NC1C=CC(=CC=1)S([O-])(=O)=O

> <Canonical_QSARr>
CC1C=CC(=CC=1N=NC1C2=CC=CC=C2C=C(C(=O)NC2=CC=C(C=C2)OC)C=1O)C(=O)NC1C=CC(=CC=1)S(O)(=O)=O

> <InChI_Code_QSARr>
InChI=1S/C32H26N4O7S/c1-19-7-8-21(31(38)33-23-11-15-25(16-12-23)44(40,41)42)18-28(19)35-36-29-26-6-4-3-5-20(26)17-27(30(29)37)32(39)34-22-9-13-24(43-2)14-10-22/h3-18,37H,1-2H3,(H,33,38)(H,34,39)(H,40,41,42)

> <InChI Key_QSARr>
POCSTEHJDCZAPU-UHFFFAOYSA-N

> <Salt_Solvent>
[Ca+2]

> <Salt_Solvent_ID>
200

> <Number of connected components>
3

$$$$
Molecule_1620
  Mrv2316 01072400032D          

 21 22  0  0  0  0            999 V2000
    0.3020   -1.9520    0.0000 C   0  0  0  0  0  0  0  0  0  0  0  0
    0.7145   -1.2375    0.0000 C   0  0  0  0  0  0  0  0  0  0  0  0
    1.1270   -0.5230    0.0000 C   0  0  0  0  0  0  0  0  0  0  0  0
    0.0000   -0.8250    0.0000 C   0  0  0  0  0  0  0  0  0  0  0  0
    0.0000    0.0000    0.0000 C   0  0  0  0  0  0  0  0  0  0  0  0
   -0.7145    0.4125    0.0000 C   0  0  0  0  0  0  0  0  0  0  0  0
   -0.7145    1.2375    0.0000 Br  0  0  0  0  0  0  0  0  0  0  0  0
   -1.4289    0.0000    0.0000 C   0  0  0  0  0  0  0  0  0  0  0  0
   -2.1434    0.4125    0.0000 O   0  0  0  0  0  0  0  0  0  0  0  0
   -1.4289   -0.8250    0.0000 C   0  0  0  0  0  0  0  0  0  0  0  0
   -2.1434   -1.2375    0.0000 Br  0  0  0  0  0  0  0  0  0  0  0  0
   -0.7145   -1.2375    0.0000 C   0  0  0  0  0  0  0  0  0  0  0  0
    1.4289   -1.6500    0.0000 C   0  0  0  0  0  0  0  0  0  0  0  0
    1.4289   -2.4750    0.0000 C   0  0  0  0  0  0  0  0  0  0  0  0
    2.1434   -2.8875    0.0000 C   0  0  0  0  0  0  0  0  0  0  0  0
    2.1434   -3.7125    0.0000 Br  0  0  0  0  0  0  0  0  0  0  0  0
    2.8579   -2.4750    0.0000 C   0  0  0  0  0  0  0  0  0  0  0  0
    3.5724   -2.8875    0.0000 O   0  0  0  0  0  0  0  0  0  0  0  0
    2.8579   -1.6500    0.0000 C   0  0  0  0  0  0  0  0  0  0  0  0
    3.5724   -1.2375    0.0000 Br  0  0  0  0  0  0  0  0  0  0  0  0
    2.1434   -1.2375    0.0000 C   0  0  0  0  0  0  0  0  0  0  0  0
  1  2  1  0  0  0  0
  2  3  1  0  0  0  0
  2  4  1  0  0  0  0
  5  4  2  0  0  0  0
  6  5  1  0  0  0  0
  6  7  1  0  0  0  0
  8  6  2  0  0  0  0
  8  9  1  0  0  0  0
 10  8  1  0  0  0  0
 10 11  1  0  0  0  0
 12 10  2  0  0  0  0
  4 12  1  0  0  0  0
  2 13  1  0  0  0  0
 14 13  2  0  0  0  0
 15 14  1  0  0  0  0
 15 16  1  0  0  0  0
 17 15  2  0  0  0  0
 17 18  1  0  0  0  0
 19 17  1  0  0  0  0
 19 20  1  0  0  0  0
 21 19  2  0  0  0  0
 13 21  1  0  0  0  0
M  END
> <RowID>
1620

> <Original_SMILES>
CC(C)(C1=CC(Br)=C(O)C(Br)=C1)C1=CC(Br)=C(O)C(Br)=C1

> <Canonical_QSARr>
CC(C)(C1=CC(Br)=C(O)C(Br)=C1)C1=CC(Br)=C(O)C(Br)=C1

> <InChI_Code_QSARr>
InChI=1S/C15H12Br4O2/c1-15(2,7-3-9(16)13(20)10(17)4-7)8-5-11(18)14(21)12(19)6-8/h3-6,20-21H,1-2H3

> <InChI Key_QSARr>
VEORPZCZECFIRK-UHFFFAOYSA-N

> <Salt_Solvent>


> <Salt_Solvent_ID>
0

> <Number of connected components>
1

$$$$
Molecule_1622
  Mrv2316 01072400032D          

 64 69  0  0  0  0            999 V2000
    7.8592   -4.5375    0.0000 O   0  0  0  0  0  0  0  0  0  0  0  0
    7.1447   -4.1250    0.0000 S   0  0  0  0  0  0  0  0  0  0  0  0
    6.7322   -4.8395    0.0000 O   0  0  0  0  0  0  0  0  0  0  0  0
    7.5572   -3.4105    0.0000 O   0  0  0  0  0  0  0  0  0  0  0  0
    6.4303   -3.7125    0.0000 C   0  0  0  0  0  0  0  0  0  0  0  0
    6.4303   -2.8875    0.0000 C   0  0  0  0  0  0  0  0  0  0  0  0
    5.7158   -2.4750    0.0000 C   0  0  0  0  0  0  0  0  0  0  0  0
    5.7158   -1.6500    0.0000 N   0  0  0  0  0  0  0  0  0  0  0  0
    5.0013   -1.2375    0.0000 C   0  0  0  0  0  0  0  0  0  0  0  0
    5.0013   -0.4125    0.0000 N   0  0  0  0  0  0  0  0  0  0  0  0
    4.2868   -0.0000    0.0000 C   0  0  0  0  0  0  0  0  0  0  0  0
    4.2868    0.8250    0.0000 N   0  0  0  0  0  0  0  0  0  0  0  0
    3.5724    1.2375    0.0000 C   0  0  0  0  0  0  0  0  0  0  0  0
    3.5724    2.0625    0.0000 C   0  0  0  0  0  0  0  0  0  0  0  0
    2.8579    2.4750    0.0000 C   0  0  0  0  0  0  0  0  0  0  0  0
    2.1434    2.0625    0.0000 C   0  0  0  0  0  0  0  0  0  0  0  0
    2.1434    1.2375    0.0000 C   0  0  0  0  0  0  0  0  0  0  0  0
    2.8579    0.8250    0.0000 C   0  0  0  0  0  0  0  0  0  0  0  0
    3.5724   -0.4125    0.0000 N   0  0  0  0  0  0  0  0  0  0  0  0
    3.5724   -1.2375    0.0000 C   0  0  0  0  0  0  0  0  0  0  0  0
    2.8579   -1.6500    0.0000 N   0  0  0  0  0  0  0  0  0  0  0  0
    2.1434   -1.2375    0.0000 C   0  0  0  0  0  0  0  0  0  0  0  0
    2.1434   -0.4125    0.0000 C   0  0  0  0  0  0  0  0  0  0  0  0
    1.4290   -0.0000    0.0000 O   0  0  0  0  0  0  0  0  0  0  0  0
    2.8579   -2.4750    0.0000 C   0  0  0  0  0  0  0  0  0  0  0  0
    3.5724   -2.8875    0.0000 C   0  0  0  0  0  0  0  0  0  0  0  0
    3.5724   -3.7125    0.0000 O   0  0  0  0  0  0  0  0  0  0  0  0
    4.2868   -1.6500    0.0000 N   0  0  0  0  0  0  0  0  0  0  0  0
    5.0013   -2.8875    0.0000 C   0  0  0  0  0  0  0  0  0  0  0  0
    5.0013   -3.7125    0.0000 C   0  0  0  0  0  0  0  0  0  0  0  0
    5.7158   -4.1250    0.0000 C   0  0  0  0  0  0  0  0  0  0  0  0
    5.7158   -4.9500    0.0000 C   0  0  0  0  0  0  0  0  0  0  0  0
    5.0013   -5.3625    0.0000 C   0  0  0  0  0  0  0  0  0  0  0  0
    5.0013   -6.1875    0.0000 C   0  0  0  0  0  0  0  0  0  0  0  0
    5.7158   -6.6000    0.0000 C   0  0  0  0  0  0  0  0  0  0  0  0
    5.7158   -7.4250    0.0000 C   0  0  0  0  0  0  0  0  0  0  0  0
    5.0013   -7.8375    0.0000 C   0  0  0  0  0  0  0  0  0  0  0  0
    5.0013   -8.6625    0.0000 N   0  0  0  0  0  0  0  0  0  0  0  0
    5.7158   -9.0750    0.0000 C   0  0  0  0  0  0  0  0  0  0  0  0
    5.7158   -9.9000    0.0000 N   0  0  0  0  0  0  0  0  0  0  0  0
    6.4303  -10.3125    0.0000 C   0  0  0  0  0  0  0  0  0  0  0  0
    6.4303  -11.1375    0.0000 N   0  0  0  0  0  0  0  0  0  0  0  0
    7.1447  -11.5500    0.0000 C   0  0  0  0  0  0  0  0  0  0  0  0
    7.1447  -12.3750    0.0000 C   0  0  0  0  0  0  0  0  0  0  0  0
    7.8592  -12.7875    0.0000 C   0  0  0  0  0  0  0  0  0  0  0  0
    8.5737  -12.3750    0.0000 C   0  0  0  0  0  0  0  0  0  0  0  0
    8.5737  -11.5500    0.0000 C   0  0  0  0  0  0  0  0  0  0  0  0
    7.8592  -11.1375    0.0000 C   0  0  0  0  0  0  0  0  0  0  0  0
    7.1447   -9.9000    0.0000 N   0  0  0  0  0  0  0  0  0  0  0  0
    7.1447   -9.0750    0.0000 C   0  0  0  0  0  0  0  0  0  0  0  0
    7.8592   -8.6625    0.0000 N   0  0  0  0  0  0  0  0  0  0  0  0
    8.5737   -9.0750    0.0000 C   0  0  0  0  0  0  0  0  0  0  0  0
    8.5737   -9.9000    0.0000 C   0  0  0  0  0  0  0  0  0  0  0  0
    9.2881  -10.3125    0.0000 O   0  0  0  0  0  0  0  0  0  0  0  0
    7.8592   -7.8375    0.0000 C   0  0  0  0  0  0  0  0  0  0  0  0
    7.1447   -7.4250    0.0000 C   0  0  0  0  0  0  0  0  0  0  0  0
    7.1447   -6.6000    0.0000 O   0  0  0  0  0  0  0  0  0  0  0  0
    6.4303   -8.6625    0.0000 N   0  0  0  0  0  0  0  0  0  0  0  0
    4.2868   -7.4250    0.0000 C   0  0  0  0  0  0  0  0  0  0  0  0
    4.2868   -6.6000    0.0000 C   0  0  0  0  0  0  0  0  0  0  0  0
    3.5724   -6.1875    0.0000 S   0  0  0  0  0  0  0  0  0  0  0  0
    3.1599   -6.9020    0.0000 O   0  0  0  0  0  0  0  0  0  0  0  0
    3.9849   -5.4730    0.0000 O   0  0  0  0  0  0  0  0  0  0  0  0
    2.8579   -5.7750    0.0000 O   0  0  0  0  0  0  0  0  0  0  0  0
  1  2  1  0  0  0  0
  2  3  2  0  0  0  0
  2  4  2  0  0  0  0
  2  5  1  0  0  0  0
  6  5  2  0  0  0  0
  7  6  1  0  0  0  0
  7  8  1  0  0  0  0
  8  9  1  0  0  0  0
 10  9  2  0  0  0  0
 11 10  1  0  0  0  0
 11 12  1  0  0  0  0
 12 13  1  0  0  0  0
 14 13  1  0  0  0  0
 15 14  2  0  0  0  0
 16 15  1  0  0  0  0
 17 16  2  0  0  0  0
 18 17  1  0  0  0  0
 13 18  2  0  0  0  0
 19 11  2  0  0  0  0
 20 19  1  0  0  0  0
 20 21  1  0  0  0  0
 21 22  1  0  0  0  0
 22 23  1  0  0  0  0
 23 24  1  0  0  0  0
 21 25  1  0  0  0  0
 25 26  1  0  0  0  0
 26 27  1  0  0  0  0
 28 20  2  0  0  0  0
  9 28  1  0  0  0  0
 29  7  2  0  0  0  0
 30 29  1  0  0  0  0
 31 30  2  0  0  0  0
  5 31  1  0  0  0  0
 32 31  1  4  0  0  0
 32 33  2  0  0  0  0
 33 34  1  0  0  0  0
 35 34  2  0  0  0  0
 36 35  1  0  0  0  0
 37 36  2  0  0  0  0
 37 38  1  0  0  0  0
 38 39  1  0  0  0  0
 40 39  2  0  0  0  0
 41 40  1  0  0  0  0
 41 42  1  0  0  0  0
 42 43  1  0  0  0  0
 44 43  1  0  0  0  0
 45 44  2  0  0  0  0
 46 45  1  0  0  0  0
 47 46  2  0  0  0  0
 48 47  1  0  0  0  0
 43 48  2  0  0  0  0
 49 41  2  0  0  0  0
 50 49  1  0  0  0  0
 50 51  1  0  0  0  0
 51 52  1  0  0  0  0
 52 53  1  0  0  0  0
 53 54  1  0  0  0  0
 51 55  1  0  0  0  0
 55 56  1  0  0  0  0
 56 57  1  0  0  0  0
 58 50  2  0  0  0  0
 39 58  1  0  0  0  0
 59 37  1  0  0  0  0
 60 59  2  0  0  0  0
 34 60  1  0  0  0  0
 60 61  1  0  0  0  0
 61 62  1  0  0  0  0
 61 63  2  0  0  0  0
 61 64  2  0  0  0  0
M  END
> <RowID>
1622

> <Original_SMILES>
OS(=O)(=O)C1=CC(=CC=C1C=CC1=CC=C(C=C1S(O)(=O)=O)NC1=NC(NC2C=CC=CC=2)=NC(=N1)N(CCO)CCO)NC1=NC(NC2C=CC=CC=2)=NC(=N1)N(CCO)CCO

> <Canonical_QSARr>
OS(=O)(=O)C1=CC(=CC=C1C=CC1=CC=C(C=C1S(O)(=O)=O)NC1=NC(NC2C=CC=CC=2)=NC(=N1)N(CCO)CCO)NC1=NC(NC2C=CC=CC=2)=NC(=N1)N(CCO)CCO

> <InChI_Code_QSARr>
InChI=1S/C40H44N12O10S2/c53-21-17-51(18-22-54)39-47-35(41-29-7-3-1-4-8-29)45-37(49-39)43-31-15-13-27(33(25-31)63(57,58)59)11-12-28-14-16-32(26-34(28)64(60,61)62)44-38-46-36(42-30-9-5-2-6-10-30)48-40(50-38)52(19-23-55)20-24-56/h1-16,25-26,53-56H,17-24H2,(H,57,58,59)(H,60,61,62)(H2,41,43,45,47,49)(H2,42,44,46,48,50)

> <InChI Key_QSARr>
CNGYZEMWVAWWOB-UHFFFAOYSA-N

> <Salt_Solvent>


> <Salt_Solvent_ID>
0

> <Number of connected components>
1

$$$$
Molecule_1624
  Mrv2316 01072400032D          

  9  9  0  0  0  0            999 V2000
    2.1434   -0.4125    0.0000 C   0  0  0  0  0  0  0  0  0  0  0  0
    1.4289   -0.0000    0.0000 C   0  0  0  0  0  0  0  0  0  0  0  0
    1.4289    0.8250    0.0000 C   0  0  0  0  0  0  0  0  0  0  0  0
    0.7145    1.2375    0.0000 C   0  0  0  0  0  0  0  0  0  0  0  0
    0.7145    2.0625    0.0000 N   0  0  0  0  0  0  0  0  0  0  0  0
   -0.0000    0.8250    0.0000 C   0  0  0  0  0  0  0  0  0  0  0  0
   -0.0000    0.0000    0.0000 C   0  0  0  0  0  0  0  0  0  0  0  0
   -0.7145   -0.4125    0.0000 C   0  0  0  0  0  0  0  0  0  0  0  0
    0.7145   -0.4125    0.0000 C   0  0  0  0  0  0  0  0  0  0  0  0
  1  2  1  0  0  0  0
  3  2  2  0  0  0  0
  4  3  1  0  0  0  0
  4  5  1  0  0  0  0
  6  4  2  0  0  0  0
  7  6  1  0  0  0  0
  7  8  1  0  0  0  0
  9  7  2  0  0  0  0
  2  9  1  0  0  0  0
M  END
> <RowID>
1624

> <Original_SMILES>
CC1=CC(N)=CC(C)=C1

> <Canonical_QSARr>
CC1=CC(N)=CC(C)=C1

> <InChI_Code_QSARr>
InChI=1S/C8H11N/c1-6-3-7(2)5-8(9)4-6/h3-5H,9H2,1-2H3

> <InChI Key_QSARr>
MKARNSWMMBGSHX-UHFFFAOYSA-N

> <Salt_Solvent>


> <Salt_Solvent_ID>
0

> <Number of connected components>
1

$$$$
Molecule_1625
  Mrv2316 01072400032D          

 57 60  0  0  0  0            999 V2000
    8.5737   -5.7750    0.0000 C   0  0  0  0  0  0  0  0  0  0  0  0
    7.8592   -5.3625    0.0000 C   0  0  0  0  0  0  0  0  0  0  0  0
    8.2717   -4.6480    0.0000 C   0  0  0  0  0  0  0  0  0  0  0  0
    7.4467   -6.0770    0.0000 C   0  0  0  0  0  0  0  0  0  0  0  0
    7.1447   -4.9500    0.0000 C   0  0  0  0  0  0  0  0  0  0  0  0
    7.1447   -4.1250    0.0000 C   0  0  0  0  0  0  0  0  0  0  0  0
    6.4303   -3.7125    0.0000 C   0  0  0  0  0  0  0  0  0  0  0  0
    6.4303   -2.8875    0.0000 C   0  0  0  0  0  0  0  0  0  0  0  0
    7.1447   -2.4750    0.0000 C   0  0  0  0  0  0  0  0  0  0  0  0
    7.8592   -2.8875    0.0000 C   0  0  0  0  0  0  0  0  0  0  0  0
    7.8592   -3.7125    0.0000 C   0  0  0  0  0  0  0  0  0  0  0  0
    8.5737   -2.4750    0.0000 C   0  0  0  0  0  0  0  0  0  0  0  0
    9.2882   -2.8875    0.0000 C   0  0  0  0  0  0  0  0  0  0  0  0
   10.0026   -2.4750    0.0000 C   0  0  0  0  0  0  0  0  0  0  0  0
   10.7171   -2.8875    0.0000 C   0  0  0  0  0  0  0  0  0  0  0  0
   11.4316   -2.4750    0.0000 C   0  0  0  0  0  0  0  0  0  0  0  0
   12.1460   -2.8875    0.0000 C   0  0  0  0  0  0  0  0  0  0  0  0
   12.8605   -3.3000    0.0000 C   0  0  0  0  0  0  0  0  0  0  0  0
   11.7335   -3.6020    0.0000 C   0  0  0  0  0  0  0  0  0  0  0  0
   12.5585   -2.1730    0.0000 C   0  0  0  0  0  0  0  0  0  0  0  0
   11.4316   -1.6500    0.0000 C   0  0  0  0  0  0  0  0  0  0  0  0
   12.1460   -1.2375    0.0000 O   0  0  0  0  0  0  0  0  0  0  0  0
   10.7171   -1.2375    0.0000 C   0  0  0  0  0  0  0  0  0  0  0  0
   10.7171   -0.4125    0.0000 C   0  0  0  0  0  0  0  0  0  0  0  0
   10.7171    0.4125    0.0000 C   0  0  0  0  0  0  0  0  0  0  0  0
    9.8921   -0.4125    0.0000 C   0  0  0  0  0  0  0  0  0  0  0  0
   11.5421   -0.4125    0.0000 C   0  0  0  0  0  0  0  0  0  0  0  0
   10.0026   -1.6500    0.0000 C   0  0  0  0  0  0  0  0  0  0  0  0
    8.5737   -1.6500    0.0000 C   0  0  0  0  0  0  0  0  0  0  0  0
    9.2882   -1.2375    0.0000 C   0  0  0  0  0  0  0  0  0  0  0  0
    7.8592   -1.2375    0.0000 C   0  0  0  0  0  0  0  0  0  0  0  0
    7.8592   -0.4125    0.0000 C   0  0  0  0  0  0  0  0  0  0  0  0
    7.1447    0.0000    0.0000 C   0  0  0  0  0  0  0  0  0  0  0  0
    7.1447    0.8250    0.0000 C   0  0  0  0  0  0  0  0  0  0  0  0
    6.4303    1.2375    0.0000 C   0  0  0  0  0  0  0  0  0  0  0  0
    6.4303    2.0625    0.0000 C   0  0  0  0  0  0  0  0  0  0  0  0
    6.4303    2.8875    0.0000 C   0  0  0  0  0  0  0  0  0  0  0  0
    5.6053    2.0625    0.0000 C   0  0  0  0  0  0  0  0  0  0  0  0
    7.2553    2.0625    0.0000 C   0  0  0  0  0  0  0  0  0  0  0  0
    5.7158    0.8250    0.0000 C   0  0  0  0  0  0  0  0  0  0  0  0
    5.0013    1.2375    0.0000 O   0  0  0  0  0  0  0  0  0  0  0  0
    5.7158    0.0000    0.0000 C   0  0  0  0  0  0  0  0  0  0  0  0
    5.0013   -0.4125    0.0000 C   0  0  0  0  0  0  0  0  0  0  0  0
    4.2869   -0.8250    0.0000 C   0  0  0  0  0  0  0  0  0  0  0  0
    5.4138   -1.1270    0.0000 C   0  0  0  0  0  0  0  0  0  0  0  0
    4.5888    0.3020    0.0000 C   0  0  0  0  0  0  0  0  0  0  0  0
    6.4303   -0.4125    0.0000 C   0  0  0  0  0  0  0  0  0  0  0  0
    7.1447   -1.6500    0.0000 C   0  0  0  0  0  0  0  0  0  0  0  0
    6.4303   -1.2375    0.0000 C   0  0  0  0  0  0  0  0  0  0  0  0
    5.7158   -4.1250    0.0000 C   0  0  0  0  0  0  0  0  0  0  0  0
    5.7158   -4.9500    0.0000 C   0  0  0  0  0  0  0  0  0  0  0  0
    5.0013   -5.3625    0.0000 C   0  0  0  0  0  0  0  0  0  0  0  0
    4.2869   -5.7750    0.0000 C   0  0  0  0  0  0  0  0  0  0  0  0
    5.4138   -6.0770    0.0000 C   0  0  0  0  0  0  0  0  0  0  0  0
    4.5888   -4.6480    0.0000 C   0  0  0  0  0  0  0  0  0  0  0  0
    6.4303   -5.3625    0.0000 C   0  0  0  0  0  0  0  0  0  0  0  0
    6.4303   -6.1875    0.0000 O   0  0  0  0  0  0  0  0  0  0  0  0
  1  2  1  0  0  0  0
  2  3  1  0  0  0  0
  2  4  1  0  0  0  0
  2  5  1  0  0  0  0
  6  5  2  0  0  0  0
  7  6  1  0  0  0  0
  7  8  1  0  0  0  0
  8  9  1  0  0  0  0
 10  9  1  0  0  0  0
 10 11  1  0  0  0  0
 12 10  2  0  0  0  0
 12 13  1  0  0  0  0
 13 14  1  0  0  0  0
 15 14  2  0  0  0  0
 16 15  1  0  0  0  0
 16 17  1  0  0  0  0
 17 18  1  0  0  0  0
 17 19  1  0  0  0  0
 17 20  1  0  0  0  0
 21 16  2  0  0  0  0
 21 22  1  0  0  0  0
 23 21  1  0  0  0  0
 23 24  1  0  0  0  0
 24 25  1  0  0  0  0
 24 26  1  0  0  0  0
 24 27  1  0  0  0  0
 28 23  2  0  0  0  0
 14 28  1  0  0  0  0
 29 12  1  0  0  0  0
 29 30  1  0  0  0  0
 31 29  2  0  0  0  0
 31 32  1  0  0  0  0
 32 33  1  0  0  0  0
 34 33  2  0  0  0  0
 35 34  1  0  0  0  0
 35 36  1  0  0  0  0
 36 37  1  0  0  0  0
 36 38  1  0  0  0  0
 36 39  1  0  0  0  0
 40 35  2  0  0  0  0
 40 41  1  0  0  0  0
 42 40  1  0  0  0  0
 42 43  1  0  0  0  0
 43 44  1  0  0  0  0
 43 45  1  0  0  0  0
 43 46  1  0  0  0  0
 47 42  2  0  0  0  0
 33 47  1  0  0  0  0
 48 31  1  0  0  0  0
  9 48  2  0  0  0  0
 48 49  1  0  0  0  0
 50  7  2  0  0  0  0
 51 50  1  0  0  0  0
 51 52  1  0  0  0  0
 52 53  1  0  0  0  0
 52 54  1  0  0  0  0
 52 55  1  0  0  0  0
 56 51  2  0  0  0  0
  5 56  1  0  0  0  0
 56 57  1  0  0  0  0
M  END
> <RowID>
1625

> <Original_SMILES>
CC(C)(C)C1=CC(CC2C(C)=C(CC3=CC(=C(O)C(=C3)C(C)(C)C)C(C)(C)C)C(C)=C(CC3=CC(=C(O)C(=C3)C(C)(C)C)C(C)(C)C)C=2C)=CC(=C1O)C(C)(C)C

> <Canonical_QSARr>
CC(C)(C)C1=CC(CC2C(C)=C(CC3=CC(=C(O)C(=C3)C(C)(C)C)C(C)(C)C)C(C)=C(CC3=CC(=C(O)C(=C3)C(C)(C)C)C(C)(C)C)C=2C)=CC(=C1O)C(C)(C)C

> <InChI_Code_QSARr>
InChI=1S/C54H78O3/c1-31-37(22-34-25-40(49(4,5)6)46(55)41(26-34)50(7,8)9)32(2)39(24-36-29-44(53(16,17)18)48(57)45(30-36)54(19,20)21)33(3)38(31)23-35-27-42(51(10,11)12)47(56)43(28-35)52(13,14)15/h25-30,55-57H,22-24H2,1-21H3

> <InChI Key_QSARr>
VSAWBBYYMBQKIK-UHFFFAOYSA-N

> <Salt_Solvent>


> <Salt_Solvent_ID>
0

> <Number of connected components>
1

$$$$
Molecule_1626
  Mrv2316 01072400032D          

 42 43  0  0  0  0            999 V2000
   -5.0013  -11.1375    0.0000 C   0  0  0  0  0  0  0  0  0  0  0  0
   -4.2868  -10.7250    0.0000 C   0  0  0  0  0  0  0  0  0  0  0  0
   -4.2868   -9.9000    0.0000 C   0  0  0  0  0  0  0  0  0  0  0  0
   -3.5724   -9.4875    0.0000 C   0  0  0  0  0  0  0  0  0  0  0  0
   -3.5724   -8.6625    0.0000 C   0  0  0  0  0  0  0  0  0  0  0  0
   -2.8579   -8.2500    0.0000 C   0  0  0  0  0  0  0  0  0  0  0  0
   -2.8579   -7.4250    0.0000 O   0  0  0  0  0  0  0  0  0  0  0  0
   -2.1434   -7.0125    0.0000 C   0  0  0  0  0  0  0  0  0  0  0  0
   -2.1434   -6.1875    0.0000 C   0  0  0  0  0  0  0  0  0  0  0  0
   -1.4289   -5.7750    0.0000 C   0  0  0  0  0  0  0  0  0  0  0  0
   -1.4289   -4.9500    0.0000 N   0  0  0  0  0  0  0  0  0  0  0  0
   -0.7145   -4.5375    0.0000 C   0  0  0  0  0  0  0  0  0  0  0  0
   -0.0000   -4.9500    0.0000 O   0  0  0  0  0  0  0  0  0  0  0  0
   -0.7145   -3.7125    0.0000 N   0  0  0  0  0  0  0  0  0  0  0  0
   -0.0000   -3.3000    0.0000 C   0  0  0  0  0  0  0  0  0  0  0  0
    0.7145   -3.7125    0.0000 C   0  0  0  0  0  0  0  0  0  0  0  0
    1.4289   -3.3000    0.0000 C   0  0  0  0  0  0  0  0  0  0  0  0
    1.4289   -2.4750    0.0000 C   0  0  0  0  0  0  0  0  0  0  0  0
    0.7145   -2.0625    0.0000 C   0  0  0  0  0  0  0  0  0  0  0  0
   -0.0000   -2.4750    0.0000 C   0  0  0  0  0  0  0  0  0  0  0  0
   -0.7145   -2.0625    0.0000 C   0  0  0  0  0  0  0  0  0  0  0  0
   -0.7145   -1.2375    0.0000 C   0  0  0  0  0  0  0  0  0  0  0  0
   -0.0000   -0.8250    0.0000 C   0  0  0  0  0  0  0  0  0  0  0  0
    0.7145   -1.2375    0.0000 C   0  0  0  0  0  0  0  0  0  0  0  0
    1.4289   -0.8250    0.0000 N   0  0  0  0  0  0  0  0  0  0  0  0
    2.1434   -1.2375    0.0000 C   0  0  0  0  0  0  0  0  0  0  0  0
    2.1434   -2.0625    0.0000 O   0  0  0  0  0  0  0  0  0  0  0  0
    2.8579   -0.8250    0.0000 N   0  0  0  0  0  0  0  0  0  0  0  0
    3.5723   -1.2375    0.0000 C   0  0  0  0  0  0  0  0  0  0  0  0
    4.2868   -0.8250    0.0000 C   0  0  0  0  0  0  0  0  0  0  0  0
    5.0013   -1.2375    0.0000 C   0  0  0  0  0  0  0  0  0  0  0  0
    5.7158   -0.8250    0.0000 O   0  0  0  0  0  0  0  0  0  0  0  0
    6.4302   -1.2375    0.0000 C   0  0  0  0  0  0  0  0  0  0  0  0
    7.1447   -0.8250    0.0000 C   0  0  0  0  0  0  0  0  0  0  0  0
    7.8592   -1.2375    0.0000 C   0  0  0  0  0  0  0  0  0  0  0  0
    8.5736   -0.8250    0.0000 C   0  0  0  0  0  0  0  0  0  0  0  0
    9.2881   -1.2375    0.0000 C   0  0  0  0  0  0  0  0  0  0  0  0
   10.0026   -0.8250    0.0000 C   0  0  0  0  0  0  0  0  0  0  0  0
    7.1447   -0.0000    0.0000 C   0  0  0  0  0  0  0  0  0  0  0  0
    7.8592    0.4125    0.0000 C   0  0  0  0  0  0  0  0  0  0  0  0
   -4.2868   -8.2500    0.0000 C   0  0  0  0  0  0  0  0  0  0  0  0
   -4.2868   -7.4250    0.0000 C   0  0  0  0  0  0  0  0  0  0  0  0
  1  2  1  0  0  0  0
  2  3  1  0  0  0  0
  3  4  1  0  0  0  0
  4  5  1  0  0  0  0
  5  6  1  0  0  0  0
  6  7  1  0  0  0  0
  7  8  1  0  0  0  0
  8  9  1  0  0  0  0
  9 10  1  0  0  0  0
 10 11  1  0  0  0  0
 11 12  1  0  0  0  0
 12 13  2  0  0  0  0
 12 14  1  0  0  0  0
 14 15  1  0  0  0  0
 16 15  2  0  0  0  0
 17 16  1  0  0  0  0
 18 17  2  0  0  0  0
 19 18  1  0  0  0  0
 19 20  1  0  0  0  0
 15 20  1  0  0  0  0
 20 21  2  0  0  0  0
 21 22  1  0  0  0  0
 22 23  2  0  0  0  0
 23 24  1  0  0  0  0
 24 19  2  0  0  0  0
 24 25  1  0  0  0  0
 25 26  1  0  0  0  0
 26 27  2  0  0  0  0
 26 28  1  0  0  0  0
 28 29  1  0  0  0  0
 29 30  1  0  0  0  0
 30 31  1  0  0  0  0
 31 32  1  0  0  0  0
 32 33  1  0  0  0  0
 33 34  1  0  0  0  0
 34 35  1  0  0  0  0
 35 36  1  0  0  0  0
 36 37  1  0  0  0  0
 37 38  1  0  0  0  0
 34 39  1  0  0  0  0
 39 40  1  0  0  0  0
  5 41  1  0  0  0  0
 41 42  1  0  0  0  0
M  END
> <RowID>
1626

> <Original_SMILES>
CCCCC(COCCCNC(=O)NC1=CC=CC2C1=CC=CC=2NC(=O)NCCCOCC(CCCC)CC)CC

> <Canonical_QSARr>
CCCCC(COCCCNC(=O)NC1=CC=CC2C1=CC=CC=2NC(=O)NCCCOCC(CCCC)CC)CC

> <InChI_Code_QSARr>
InChI=1S/C34H56N4O4/c1-5-9-15-27(7-3)25-41-23-13-21-35-33(39)37-31-19-11-18-30-29(31)17-12-20-32(30)38-34(40)36-22-14-24-42-26-28(8-4)16-10-6-2/h11-12,17-20,27-28H,5-10,13-16,21-26H2,1-4H3,(H2,35,37,39)(H2,36,38,40)

> <InChI Key_QSARr>
NZJJSYLOGZGJHU-UHFFFAOYSA-N

> <Salt_Solvent>


> <Salt_Solvent_ID>
0

> <Number of connected components>
1

$$$$
Molecule_1627
  Mrv2316 01072400032D          

 32 35  0  0  0  0            999 V2000
   -2.9209    0.0397    0.0000 O   0  0  0  0  0  0  0  0  0  0  0  0
   -3.1758   -0.7450    0.0000 C   0  0  0  0  0  0  0  0  0  0  0  0
   -3.9604   -0.9999    0.0000 C   0  0  0  0  0  0  0  0  0  0  0  0
   -3.9604   -1.8249    0.0000 C   0  0  0  0  0  0  0  0  0  0  0  0
   -4.6749   -2.2374    0.0000 C   0  0  0  0  0  0  0  0  0  0  0  0
   -4.6749   -3.0624    0.0000 Br  0  0  0  0  0  0  0  0  0  0  0  0
   -5.3894   -1.8249    0.0000 C   0  0  0  0  0  0  0  0  0  0  0  0
   -6.1039   -2.2374    0.0000 Br  0  0  0  0  0  0  0  0  0  0  0  0
   -5.3894   -0.9999    0.0000 C   0  0  0  0  0  0  0  0  0  0  0  0
   -6.1039   -0.5874    0.0000 Br  0  0  0  0  0  0  0  0  0  0  0  0
   -4.6749   -0.5874    0.0000 C   0  0  0  0  0  0  0  0  0  0  0  0
   -4.6749    0.2376    0.0000 Br  0  0  0  0  0  0  0  0  0  0  0  0
   -3.1758   -2.0798    0.0000 C   0  0  0  0  0  0  0  0  0  0  0  0
   -2.9209   -2.8645    0.0000 O   0  0  0  0  0  0  0  0  0  0  0  0
   -2.6909   -1.4124    0.0000 N   0  0  0  0  0  0  0  0  0  0  0  0
   -1.8659   -1.4124    0.0000 C   0  0  0  0  0  0  0  0  0  0  0  0
   -1.4534   -0.6979    0.0000 C   0  0  0  0  0  0  0  0  0  0  0  0
   -0.6284   -0.6979    0.0000 N   0  0  0  0  0  0  0  0  0  0  0  0
   -0.1435   -1.3654    0.0000 C   0  0  0  0  0  0  0  0  0  0  0  0
   -0.3984   -2.1500    0.0000 O   0  0  0  0  0  0  0  0  0  0  0  0
    0.6411   -1.1104    0.0000 C   0  0  0  0  0  0  0  0  0  0  0  0
    0.6411   -0.2854    0.0000 C   0  0  0  0  0  0  0  0  0  0  0  0
    1.3556    0.1271    0.0000 C   0  0  0  0  0  0  0  0  0  0  0  0
    1.3556    0.9521    0.0000 Br  0  0  0  0  0  0  0  0  0  0  0  0
    2.0701   -0.2854    0.0000 C   0  0  0  0  0  0  0  0  0  0  0  0
    2.7846    0.1271    0.0000 Br  0  0  0  0  0  0  0  0  0  0  0  0
    2.0701   -1.1104    0.0000 C   0  0  0  0  0  0  0  0  0  0  0  0
    2.7846   -1.5229    0.0000 Br  0  0  0  0  0  0  0  0  0  0  0  0
    1.3556   -1.5229    0.0000 C   0  0  0  0  0  0  0  0  0  0  0  0
    1.3556   -2.3479    0.0000 Br  0  0  0  0  0  0  0  0  0  0  0  0
   -0.1435   -0.0305    0.0000 C   0  0  0  0  0  0  0  0  0  0  0  0
   -0.3984    0.7541    0.0000 O   0  0  0  0  0  0  0  0  0  0  0  0
  1  2  2  0  0  0  0
  3  2  1  0  0  0  0
  3  4  1  0  0  0  0
  4  5  2  0  0  0  0
  5  6  1  0  0  0  0
  5  7  1  0  0  0  0
  7  8  1  0  0  0  0
  7  9  2  0  0  0  0
  9 10  1  0  0  0  0
  9 11  1  0  0  0  0
 11  3  2  0  0  0  0
 11 12  1  0  0  0  0
 13  4  1  0  0  0  0
 13 14  2  0  0  0  0
 15 13  1  0  0  0  0
  2 15  1  0  0  0  0
 15 16  1  0  0  0  0
 16 17  1  0  0  0  0
 17 18  1  0  0  0  0
 19 18  1  0  0  0  0
 19 20  2  0  0  0  0
 21 19  1  0  0  0  0
 21 22  2  0  0  0  0
 22 23  1  0  0  0  0
 23 24  1  0  0  0  0
 23 25  2  0  0  0  0
 25 26  1  0  0  0  0
 25 27  1  0  0  0  0
 27 28  1  0  0  0  0
 27 29  2  0  0  0  0
 29 21  1  0  0  0  0
 29 30  1  0  0  0  0
 31 22  1  0  0  0  0
 18 31  1  0  0  0  0
 31 32  2  0  0  0  0
M  END
> <RowID>
1627

> <Original_SMILES>
O=C1C2C(=C(Br)C(Br)=C(Br)C=2Br)C(=O)N1CCN1C(=O)C2=C(C(Br)=C(Br)C(Br)=C2Br)C1=O

> <Canonical_QSARr>
O=C1C2C(=C(Br)C(Br)=C(Br)C=2Br)C(=O)N1CCN1C(=O)C2=C(C(Br)=C(Br)C(Br)=C2Br)C1=O

> <InChI_Code_QSARr>
InChI=1S/C18H4Br8N2O4/c19-7-3-4(8(20)12(24)11(7)23)16(30)27(15(3)29)1-2-28-17(31)5-6(18(28)32)10(22)14(26)13(25)9(5)21/h1-2H2

> <InChI Key_QSARr>
DYIZJUDNMOIZQO-UHFFFAOYSA-N

> <Salt_Solvent>


> <Salt_Solvent_ID>
0

> <Number of connected components>
1

$$$$
Molecule_1628
  Mrv2316 01072400032D          

 40 44  0  0  0  0            999 V2000
    4.9896   -2.4820    0.0000 O   0  0  0  0  0  0  0  0  0  0  0  0
    4.9896   -3.3070    0.0000 S   0  0  0  0  0  0  0  0  0  0  0  0
    5.8146   -3.3070    0.0000 O   0  0  0  0  0  0  0  0  0  0  0  0
    4.1646   -3.3070    0.0000 O   0  0  0  0  0  0  0  0  0  0  0  0
    4.9896   -4.1320    0.0000 C   0  0  0  0  0  0  0  0  0  0  0  0
    4.2751   -4.5445    0.0000 C   0  0  0  0  0  0  0  0  0  0  0  0
    3.4905   -4.2896    0.0000 N   0  0  0  0  0  0  0  0  0  0  0  0
    3.0056   -4.9570    0.0000 C   0  0  0  0  0  0  0  0  0  0  0  0
    2.1806   -4.9570    0.0000 C   0  0  0  0  0  0  0  0  0  0  0  0
    1.7681   -4.2425    0.0000 C   0  0  0  0  0  0  0  0  0  0  0  0
    0.9431   -4.2425    0.0000 C   0  0  0  0  0  0  0  0  0  0  0  0
    0.5306   -4.9570    0.0000 C   0  0  0  0  0  0  0  0  0  0  0  0
   -0.2944   -4.9570    0.0000 C   0  0  0  0  0  0  0  0  0  0  0  0
   -0.7793   -5.6244    0.0000 N   0  0  0  0  0  0  0  0  0  0  0  0
   -1.5640   -5.3695    0.0000 C   0  0  0  0  0  0  0  0  0  0  0  0
   -2.2784   -5.7820    0.0000 C   0  0  0  0  0  0  0  0  0  0  0  0
   -2.9929   -5.3695    0.0000 C   0  0  0  0  0  0  0  0  0  0  0  0
   -3.7074   -5.7820    0.0000 S   0  0  0  0  0  0  0  0  0  0  0  0
   -4.4218   -6.1945    0.0000 O   0  0  0  0  0  0  0  0  0  0  0  0
   -3.2949   -6.4965    0.0000 O   0  0  0  0  0  0  0  0  0  0  0  0
   -4.1199   -5.0675    0.0000 O   0  0  0  0  0  0  0  0  0  0  0  0
   -2.9929   -4.5445    0.0000 C   0  0  0  0  0  0  0  0  0  0  0  0
   -2.2784   -4.1320    0.0000 C   0  0  0  0  0  0  0  0  0  0  0  0
   -2.2784   -3.3070    0.0000 S   0  0  0  0  0  0  0  0  0  0  0  0
   -2.2784   -2.4820    0.0000 O   0  0  0  0  0  0  0  0  0  0  0  0
   -1.4534   -3.3070    0.0000 O   0  0  0  0  0  0  0  0  0  0  0  0
   -3.1034   -3.3070    0.0000 O   0  0  0  0  0  0  0  0  0  0  0  0
   -1.5640   -4.5445    0.0000 C   0  0  0  0  0  0  0  0  0  0  0  0
   -0.7793   -4.2896    0.0000 N   0  0  0  0  0  0  0  0  0  0  0  0
    0.9431   -5.6715    0.0000 C   0  0  0  0  0  0  0  0  0  0  0  0
    1.7681   -5.6715    0.0000 C   0  0  0  0  0  0  0  0  0  0  0  0
    3.4905   -5.6244    0.0000 N   0  0  0  0  0  0  0  0  0  0  0  0
    4.2751   -5.3695    0.0000 C   0  0  0  0  0  0  0  0  0  0  0  0
    4.9896   -5.7820    0.0000 C   0  0  0  0  0  0  0  0  0  0  0  0
    5.7041   -5.3695    0.0000 C   0  0  0  0  0  0  0  0  0  0  0  0
    6.4185   -5.7820    0.0000 S   0  0  0  0  0  0  0  0  0  0  0  0
    7.1330   -6.1945    0.0000 O   0  0  0  0  0  0  0  0  0  0  0  0
    6.0060   -6.4965    0.0000 O   0  0  0  0  0  0  0  0  0  0  0  0
    6.8310   -5.0675    0.0000 O   0  0  0  0  0  0  0  0  0  0  0  0
    5.7041   -4.5445    0.0000 C   0  0  0  0  0  0  0  0  0  0  0  0
  1  2  1  0  0  0  0
  2  3  2  0  0  0  0
  2  4  2  0  0  0  0
  2  5  1  0  0  0  0
  6  5  1  0  0  0  0
  6  7  1  0  0  0  0
  7  8  1  0  0  0  0
  8  9  1  0  0  0  0
 10  9  2  0  0  0  0
 11 10  1  0  0  0  0
 12 11  2  0  0  0  0
 12 13  1  0  0  0  0
 14 13  2  0  0  0  0
 15 14  1  0  0  0  0
 15 16  1  0  0  0  0
 16 17  2  0  0  0  0
 17 18  1  0  0  0  0
 18 19  2  0  0  0  0
 18 20  2  0  0  0  0
 18 21  1  0  0  0  0
 17 22  1  0  0  0  0
 22 23  2  0  0  0  0
 23 24  1  0  0  0  0
 24 25  1  0  0  0  0
 24 26  2  0  0  0  0
 24 27  2  0  0  0  0
 23 28  1  0  0  0  0
 28 15  2  0  0  0  0
 29 28  1  0  0  0  0
 13 29  1  0  0  0  0
 30 12  1  0  0  0  0
 31 30  2  0  0  0  0
  9 31  1  0  0  0  0
  8 32  2  0  0  0  0
 32 33  1  0  0  0  0
 33  6  2  0  0  0  0
 34 33  1  0  0  0  0
 35 34  2  0  0  0  0
 35 36  1  0  0  0  0
 36 37  2  0  0  0  0
 36 38  2  0  0  0  0
 36 39  1  0  0  0  0
 40 35  1  0  0  0  0
  5 40  2  0  0  0  0
M  END
> <RowID>
1628

> <Original_SMILES>
[Na+].[Na+].[O-]S(=O)(=O)C1C=C(C=C2N=C(NC=12)C1C=CC(=CC=1)C1NC2C(=CC(=CC=2N=1)S(O)(=O)=O)S([O-])(=O)=O)S(O)(=O)=O

> <Canonical_QSARr>
OS(=O)(=O)C1=CC(=CC2N=C(NC=21)C1C=CC(=CC=1)C1NC2C(=CC(=CC=2N=1)S(O)(=O)=O)S(O)(=O)=O)S(O)(=O)=O

> <InChI_Code_QSARr>
InChI=1S/C20H14N4O12S4/c25-37(26,27)11-5-13-17(15(7-11)39(31,32)33)23-19(21-13)9-1-2-10(4-3-9)20-22-14-6-12(38(28,29)30)8-16(18(14)24-20)40(34,35)36/h1-8H,(H,21,23)(H,22,24)(H,25,26,27)(H,28,29,30)(H,31,32,33)(H,34,35,36)

> <InChI Key_QSARr>
LYLOSUMZZKYEDT-UHFFFAOYSA-N

> <Salt_Solvent>
[Na+]

> <Salt_Solvent_ID>
110

> <Number of connected components>
3

$$$$
Molecule_1630
  Mrv2316 01072400032D          

 13 13  0  0  0  0            999 V2000
    0.3297   -1.6500    0.0000 C   0  0  0  0  0  0  0  0  0  0  0  0
    1.0442   -1.2375    0.0000 O   0  0  0  0  0  0  0  0  0  0  0  0
    1.0442   -0.4125    0.0000 C   0  0  0  0  0  0  0  0  0  0  0  0
    1.7587    0.0000    0.0000 C   0  0  0  0  0  0  0  0  0  0  0  0
    1.7587    0.8250    0.0000 C   0  0  0  0  0  0  0  0  0  0  0  0
    1.0442    1.2375    0.0000 C   0  0  0  0  0  0  0  0  0  0  0  0
    1.0442    2.0625    0.0000 C   0  0  0  0  0  0  0  0  0  0  0  0
    0.3297    2.4750    0.0000 C   0  0  0  0  0  0  0  0  0  0  0  0
   -0.3847    2.8875    0.0000 N   0  0  0  0  0  0  0  0  0  0  0  0
    0.3297    0.8250    0.0000 C   0  0  0  0  0  0  0  0  0  0  0  0
    0.3297    0.0000    0.0000 C   0  0  0  0  0  0  0  0  0  0  0  0
   -0.3847   -0.4125    0.0000 O   0  0  0  0  0  0  0  0  0  0  0  0
   -0.3847   -1.2375    0.0000 C   0  0  0  0  0  0  0  0  0  0  0  0
  1  2  1  0  0  0  0
  2  3  1  0  0  0  0
  4  3  1  0  0  0  0
  5  4  2  0  0  0  0
  6  5  1  0  0  0  0
  6  7  1  0  0  0  0
  7  8  1  0  0  0  0
  8  9  3  0  0  0  0
 10  6  2  0  0  0  0
 11 10  1  0  0  0  0
  3 11  2  0  0  0  0
 11 12  1  0  0  0  0
 12 13  1  0  0  0  0
M  END
> <RowID>
1630

> <Original_SMILES>
COC1C=CC(CC#N)=CC=1OC

> <Canonical_QSARr>
COC1C=CC(CC#N)=CC=1OC

> <InChI_Code_QSARr>
InChI=1S/C10H11NO2/c1-12-9-4-3-8(5-6-11)7-10(9)13-2/h3-4,7H,5H2,1-2H3

> <InChI Key_QSARr>
ASLSUMISAQDOOB-UHFFFAOYSA-N

> <Salt_Solvent>


> <Salt_Solvent_ID>
0

> <Number of connected components>
1

$$$$
Molecule_1631
  Mrv2316 01072400032D          

 13 14  0  0  0  0            999 V2000
   -1.5938   -1.7452    0.0000 N   0  0  0  0  0  0  0  0  0  0  0  0
   -0.8793   -2.1577    0.0000 C   0  0  0  0  0  0  0  0  0  0  0  0
   -0.8793   -2.9827    0.0000 C   0  0  0  0  0  0  0  0  0  0  0  0
   -0.1649   -3.3952    0.0000 C   0  0  0  0  0  0  0  0  0  0  0  0
    0.5496   -2.9827    0.0000 C   0  0  0  0  0  0  0  0  0  0  0  0
    0.5496   -2.1577    0.0000 C   0  0  0  0  0  0  0  0  0  0  0  0
   -0.1649   -1.7452    0.0000 C   0  0  0  0  0  0  0  0  0  0  0  0
   -0.1649   -0.9202    0.0000 C   0  0  0  0  0  0  0  0  0  0  0  0
    0.5496   -0.5077    0.0000 C   0  0  0  0  0  0  0  0  0  0  0  0
    0.5496    0.3173    0.0000 C   0  0  0  0  0  0  0  0  0  0  0  0
   -0.1649    0.7298    0.0000 C   0  0  0  0  0  0  0  0  0  0  0  0
   -0.8793    0.3173    0.0000 C   0  0  0  0  0  0  0  0  0  0  0  0
   -0.8793   -0.5077    0.0000 C   0  0  0  0  0  0  0  0  0  0  0  0
  1  2  1  0  0  0  0
  3  2  1  0  0  0  0
  4  3  2  0  0  0  0
  5  4  1  0  0  0  0
  6  5  2  0  0  0  0
  7  6  1  0  0  0  0
  2  7  2  0  0  0  0
  7  8  1  0  0  0  0
  9  8  1  0  0  0  0
 10  9  2  0  0  0  0
 11 10  1  0  0  0  0
 12 11  2  0  0  0  0
 13 12  1  0  0  0  0
  8 13  2  0  0  0  0
M  END
> <RowID>
1631

> <Original_SMILES>
NC1C=CC=CC=1C1C=CC=CC=1

> <Canonical_QSARr>
NC1C=CC=CC=1C1C=CC=CC=1

> <InChI_Code_QSARr>
InChI=1S/C12H11N/c13-12-9-5-4-8-11(12)10-6-2-1-3-7-10/h1-9H,13H2

> <InChI Key_QSARr>
TWBPWBPGNQWFSJ-UHFFFAOYSA-N

> <Salt_Solvent>


> <Salt_Solvent_ID>
0

> <Number of connected components>
1

$$$$
Molecule_1633
  Mrv2316 01072400032D          

 42 43  0  0  0  0            999 V2000
   -1.0398   -7.6595    0.0000 C   0  0  0  0  0  0  0  0  0  0  0  0
   -1.6529   -8.2115    0.0000 C   0  0  0  0  0  0  0  0  0  0  0  0
   -1.4813   -9.0185    0.0000 C   0  0  0  0  0  0  0  0  0  0  0  0
   -2.0944   -9.5705    0.0000 C   0  0  0  0  0  0  0  0  0  0  0  0
   -1.9229  -10.3775    0.0000 C   0  0  0  0  0  0  0  0  0  0  0  0
   -1.1383  -10.6324    0.0000 C   0  0  0  0  0  0  0  0  0  0  0  0
   -0.5252  -10.0804    0.0000 C   0  0  0  0  0  0  0  0  0  0  0  0
   -2.5360  -10.9295    0.0000 C   0  0  0  0  0  0  0  0  0  0  0  0
   -3.3430  -10.7580    0.0000 O   0  0  0  0  0  0  0  0  0  0  0  0
   -3.7555  -11.4725    0.0000 C   0  0  0  0  0  0  0  0  0  0  0  0
   -3.2034  -12.0855    0.0000 C   0  0  0  0  0  0  0  0  0  0  0  0
   -2.4498  -11.7500    0.0000 N   0  0  0  0  0  0  0  0  0  0  0  0
   -1.7353  -12.1625    0.0000 C   0  0  0  0  0  0  0  0  0  0  0  0
   -1.0208  -11.7500    0.0000 C   0  0  0  0  0  0  0  0  0  0  0  0
   -0.3063  -12.1625    0.0000 O   0  0  0  0  0  0  0  0  0  0  0  0
    0.4081  -11.7500    0.0000 C   0  0  0  0  0  0  0  0  0  0  0  0
    0.4081  -10.9250    0.0000 O   0  0  0  0  0  0  0  0  0  0  0  0
    1.1226  -12.1625    0.0000 N   0  0  0  0  0  0  0  0  0  0  0  0
    1.8371  -11.7500    0.0000 C   0  0  0  0  0  0  0  0  0  0  0  0
    2.5515  -12.1625    0.0000 C   0  0  0  0  0  0  0  0  0  0  0  0
    3.2660  -11.7500    0.0000 C   0  0  0  0  0  0  0  0  0  0  0  0
    3.9805  -12.1625    0.0000 C   0  0  0  0  0  0  0  0  0  0  0  0
    4.6950  -11.7500    0.0000 C   0  0  0  0  0  0  0  0  0  0  0  0
    5.4094  -12.1625    0.0000 C   0  0  0  0  0  0  0  0  0  0  0  0
    6.1239  -11.7500    0.0000 N   0  0  0  0  0  0  0  0  0  0  0  0
    6.8384  -12.1625    0.0000 C   0  0  0  0  0  0  0  0  0  0  0  0
    6.8384  -12.9875    0.0000 O   0  0  0  0  0  0  0  0  0  0  0  0
    7.5528  -11.7500    0.0000 O   0  0  0  0  0  0  0  0  0  0  0  0
    8.2673  -12.1625    0.0000 C   0  0  0  0  0  0  0  0  0  0  0  0
    8.9818  -11.7500    0.0000 C   0  0  0  0  0  0  0  0  0  0  0  0
    9.6963  -12.1625    0.0000 N   0  0  0  0  0  0  0  0  0  0  0  0
    9.7825  -12.9830    0.0000 C   0  0  0  0  0  0  0  0  0  0  0  0
   10.5895  -13.1545    0.0000 C   0  0  0  0  0  0  0  0  0  0  0  0
   11.0020  -12.4400    0.0000 O   0  0  0  0  0  0  0  0  0  0  0  0
   10.4499  -11.8269    0.0000 C   0  0  0  0  0  0  0  0  0  0  0  0
   10.6215  -11.0200    0.0000 C   0  0  0  0  0  0  0  0  0  0  0  0
   11.4061  -10.7650    0.0000 C   0  0  0  0  0  0  0  0  0  0  0  0
   11.5776   -9.9580    0.0000 C   0  0  0  0  0  0  0  0  0  0  0  0
   12.3622   -9.7031    0.0000 C   0  0  0  0  0  0  0  0  0  0  0  0
   12.5338   -8.8961    0.0000 C   0  0  0  0  0  0  0  0  0  0  0  0
   10.0084  -10.4679    0.0000 C   0  0  0  0  0  0  0  0  0  0  0  0
   10.1799   -9.6610    0.0000 C   0  0  0  0  0  0  0  0  0  0  0  0
  1  2  1  0  0  0  0
  2  3  1  0  0  0  0
  3  4  1  0  0  0  0
  4  5  1  0  0  0  0
  5  6  1  0  0  0  0
  6  7  1  0  0  0  0
  5  8  1  0  0  0  0
  9  8  1  0  0  0  0
 10  9  1  0  0  0  0
 11 10  1  0  0  0  0
 12 11  1  0  0  0  0
  8 12  1  0  0  0  0
 12 13  1  0  0  0  0
 13 14  1  0  0  0  0
 14 15  1  0  0  0  0
 15 16  1  0  0  0  0
 16 17  2  0  0  0  0
 16 18  1  0  0  0  0
 18 19  1  0  0  0  0
 19 20  1  0  0  0  0
 20 21  1  0  0  0  0
 21 22  1  0  0  0  0
 22 23  1  0  0  0  0
 23 24  1  0  0  0  0
 24 25  1  0  0  0  0
 25 26  1  0  0  0  0
 26 27  2  0  0  0  0
 26 28  1  0  0  0  0
 28 29  1  0  0  0  0
 29 30  1  0  0  0  0
 30 31  1  0  0  0  0
 32 31  1  0  0  0  0
 33 32  1  0  0  0  0
 34 33  1  0  0  0  0
 35 34  1  0  0  0  0
 31 35  1  0  0  0  0
 35 36  1  0  0  0  0
 36 37  1  0  0  0  0
 37 38  1  0  0  0  0
 38 39  1  0  0  0  0
 39 40  1  0  0  0  0
 36 41  1  0  0  0  0
 41 42  1  0  0  0  0
M  END
> <RowID>
1633

> <Original_SMILES>
CCCCC(CC)C1OCCN1CCOC(=O)NCCCCCCNC(=O)OCCN1CCOC1C(CCCC)CC

> <Canonical_QSARr>
CCCCC(CC)C1OCCN1CCOC(=O)NCCCCCCNC(=O)OCCN1CCOC1C(CCCC)CC

> <InChI_Code_QSARr>
InChI=1S/C32H62N4O6/c1-5-9-15-27(7-3)29-35(19-23-39-29)21-25-41-31(37)33-17-13-11-12-14-18-34-32(38)42-26-22-36-20-24-40-30(36)28(8-4)16-10-6-2/h27-30H,5-26H2,1-4H3,(H,33,37)(H,34,38)

> <InChI Key_QSARr>
GLHIIWCTJKBGGM-UHFFFAOYSA-N

> <Salt_Solvent>


> <Salt_Solvent_ID>
0

> <Number of connected components>
1

$$$$
Molecule_1634
  Mrv2316 01072400032D          

  6  5  0  0  0  0            999 V2000
    0.8250    1.4289    0.0000 C   0  0  0  0  0  0  0  0  0  0  0  0
    1.2375    0.7145    0.0000 C   0  0  0  0  0  0  0  0  0  0  0  0
    2.0625    0.7145    0.0000 O   0  0  0  0  0  0  0  0  0  0  0  0
    0.8250   -0.0000    0.0000 C   0  0  0  0  0  0  0  0  0  0  0  0
    1.2375   -0.7145    0.0000 C   0  0  0  0  0  0  0  0  0  0  0  0
    0.0000   -0.0000    0.0000 O   0  0  0  0  0  0  0  0  0  0  0  0
  1  2  1  0  0  0  0
  2  3  1  0  0  0  0
  2  4  1  0  0  0  0
  4  5  1  0  0  0  0
  4  6  1  0  0  0  0
M  END
> <RowID>
1634

> <Original_SMILES>
CC(O)C(C)O

> <Canonical_QSARr>
CC(O)C(C)O

> <InChI_Code_QSARr>
InChI=1S/C4H10O2/c1-3(5)4(2)6/h3-6H,1-2H3

> <InChI Key_QSARr>
OWBTYPJTUOEWEK-UHFFFAOYSA-N

> <Salt_Solvent>


> <Salt_Solvent_ID>
0

> <Number of connected components>
1

$$$$
Molecule_1635
  Mrv2316 01072400032D          

 10  9  0  0  0  0            999 V2000
    1.4289   -4.7289    0.0000 C   0  0  0  0  0  0  0  0  0  0  0  0
    1.4289   -3.9039    0.0000 C   0  0  0  0  0  0  0  0  0  0  0  0
    0.7145   -3.4914    0.0000 C   0  0  0  0  0  0  0  0  0  0  0  0
    0.7145   -2.6664    0.0000 N   0  0  0  0  0  0  0  0  0  0  0  0
   -0.0000   -2.2539    0.0000 C   0  0  0  0  0  0  0  0  0  0  0  0
   -0.0000   -1.4289    0.0000 C   0  0  0  0  0  0  0  0  0  0  0  0
   -0.7145   -1.0164    0.0000 C   0  0  0  0  0  0  0  0  0  0  0  0
    1.4289   -2.2539    0.0000 C   0  0  0  0  0  0  0  0  0  0  0  0
    1.4289   -1.4289    0.0000 C   0  0  0  0  0  0  0  0  0  0  0  0
    2.1434   -1.0164    0.0000 C   0  0  0  0  0  0  0  0  0  0  0  0
  1  2  1  0  0  0  0
  2  3  1  0  0  0  0
  3  4  1  0  0  0  0
  4  5  1  0  0  0  0
  5  6  1  0  0  0  0
  6  7  1  0  0  0  0
  4  8  1  0  0  0  0
  8  9  1  0  0  0  0
  9 10  1  0  0  0  0
M  END
> <RowID>
1635

> <Original_SMILES>
CCCN(CCC)CCC

> <Canonical_QSARr>
CCCN(CCC)CCC

> <InChI_Code_QSARr>
InChI=1S/C9H21N/c1-4-7-10(8-5-2)9-6-3/h4-9H2,1-3H3

> <InChI Key_QSARr>
YFTHZRPMJXBUME-UHFFFAOYSA-N

> <Salt_Solvent>


> <Salt_Solvent_ID>
0

> <Number of connected components>
1

$$$$
Molecule_1636
  Mrv2316 01072400032D          

 38 43  0  0  0  0            999 V2000
    6.9943  -11.2894    0.0000 O   0  0  0  0  0  0  0  0  0  0  0  0
    6.2798  -10.8769    0.0000 C   0  0  0  0  0  0  0  0  0  0  0  0
    6.2798  -10.0519    0.0000 C   0  0  0  0  0  0  0  0  0  0  0  0
    5.5654   -9.6394    0.0000 C   0  0  0  0  0  0  0  0  0  0  0  0
    5.5654   -8.8144    0.0000 O   0  0  0  0  0  0  0  0  0  0  0  0
    4.8509  -10.0519    0.0000 C   0  0  0  0  0  0  0  0  0  0  0  0
    4.1364   -9.6394    0.0000 C   0  0  0  0  0  0  0  0  0  0  0  0
    4.1364   -8.8144    0.0000 N   0  0  0  0  0  0  0  0  0  0  0  0
    3.4219   -8.4019    0.0000 C   0  0  0  0  0  0  0  0  0  0  0  0
    3.4219   -7.5769    0.0000 C   0  0  0  0  0  0  0  0  0  0  0  0
    4.1364   -7.1644    0.0000 C   0  0  0  0  0  0  0  0  0  0  0  0
    4.1364   -6.3394    0.0000 C   0  0  0  0  0  0  0  0  0  0  0  0
    3.4219   -5.9269    0.0000 C   0  0  0  0  0  0  0  0  0  0  0  0
    3.4219   -5.1019    0.0000 C   0  0  0  0  0  0  0  0  0  0  0  0
    4.1364   -4.6894    0.0000 C   0  0  0  0  0  0  0  0  0  0  0  0
    4.1364   -3.8644    0.0000 C   0  0  0  0  0  0  0  0  0  0  0  0
    3.4219   -3.4519    0.0000 C   0  0  0  0  0  0  0  0  0  0  0  0
    2.7075   -3.8644    0.0000 C   0  0  0  0  0  0  0  0  0  0  0  0
    2.7075   -4.6894    0.0000 C   0  0  0  0  0  0  0  0  0  0  0  0
    2.7075   -6.3394    0.0000 C   0  0  0  0  0  0  0  0  0  0  0  0
    2.7075   -7.1644    0.0000 C   0  0  0  0  0  0  0  0  0  0  0  0
    2.7075   -8.8144    0.0000 N   0  0  0  0  0  0  0  0  0  0  0  0
    2.7075   -9.6394    0.0000 C   0  0  0  0  0  0  0  0  0  0  0  0
    1.9930  -10.0519    0.0000 C   0  0  0  0  0  0  0  0  0  0  0  0
    1.2785   -9.6394    0.0000 C   0  0  0  0  0  0  0  0  0  0  0  0
    0.5641  -10.0519    0.0000 C   0  0  0  0  0  0  0  0  0  0  0  0
    0.5641  -10.8769    0.0000 C   0  0  0  0  0  0  0  0  0  0  0  0
   -0.1504  -11.2894    0.0000 C   0  0  0  0  0  0  0  0  0  0  0  0
   -0.8649  -10.8769    0.0000 C   0  0  0  0  0  0  0  0  0  0  0  0
   -1.5794  -11.2894    0.0000 C   0  0  0  0  0  0  0  0  0  0  0  0
   -1.5794  -12.1144    0.0000 C   0  0  0  0  0  0  0  0  0  0  0  0
   -0.8649  -12.5269    0.0000 C   0  0  0  0  0  0  0  0  0  0  0  0
   -0.1504  -12.1144    0.0000 C   0  0  0  0  0  0  0  0  0  0  0  0
    1.2785  -11.2894    0.0000 C   0  0  0  0  0  0  0  0  0  0  0  0
    1.9930  -10.8769    0.0000 C   0  0  0  0  0  0  0  0  0  0  0  0
    3.4219  -10.0519    0.0000 N   0  0  0  0  0  0  0  0  0  0  0  0
    4.8509  -10.8769    0.0000 C   0  0  0  0  0  0  0  0  0  0  0  0
    5.5654  -11.2894    0.0000 C   0  0  0  0  0  0  0  0  0  0  0  0
  1  2  1  0  0  0  0
  3  2  2  0  0  0  0
  4  3  1  0  0  0  0
  4  5  1  0  0  0  0
  6  4  2  0  0  0  0
  6  7  1  0  0  0  0
  8  7  1  0  0  0  0
  9  8  2  0  0  0  0
  9 10  1  0  0  0  0
 11 10  1  0  0  0  0
 12 11  2  0  0  0  0
 13 12  1  0  0  0  0
 13 14  1  0  0  0  0
 15 14  1  0  0  0  0
 16 15  2  0  0  0  0
 17 16  1  0  0  0  0
 18 17  2  0  0  0  0
 19 18  1  0  0  0  0
 14 19  2  0  0  0  0
 20 13  2  0  0  0  0
 21 20  1  0  0  0  0
 10 21  2  0  0  0  0
 22  9  1  0  0  0  0
 23 22  2  0  0  0  0
 23 24  1  0  0  0  0
 25 24  1  0  0  0  0
 26 25  2  0  0  0  0
 27 26  1  0  0  0  0
 27 28  1  0  0  0  0
 29 28  1  0  0  0  0
 30 29  2  0  0  0  0
 31 30  1  0  0  0  0
 32 31  2  0  0  0  0
 33 32  1  0  0  0  0
 28 33  2  0  0  0  0
 34 27  2  0  0  0  0
 35 34  1  0  0  0  0
 24 35  2  0  0  0  0
 36 23  1  0  0  0  0
  7 36  2  0  0  0  0
 37  6  1  0  0  0  0
 38 37  2  0  0  0  0
  2 38  1  0  0  0  0
M  END
> <RowID>
1636

> <Original_SMILES>
OC1=CC(O)=C(C=C1)C1N=C(N=C(N=1)C1C=CC(=CC=1)C1C=CC=CC=1)C1C=CC(=CC=1)C1C=CC=CC=1

> <Canonical_QSARr>
OC1=CC(O)=C(C=C1)C1N=C(N=C(N=1)C1C=CC(=CC=1)C1C=CC=CC=1)C1C=CC(=CC=1)C1C=CC=CC=1

> <InChI_Code_QSARr>
InChI=1S/C33H23N3O2/c37-28-19-20-29(30(38)21-28)33-35-31(26-15-11-24(12-16-26)22-7-3-1-4-8-22)34-32(36-33)27-17-13-25(14-18-27)23-9-5-2-6-10-23/h1-21,37-38H

> <InChI Key_QSARr>
RLTVFGXWHJQNHK-UHFFFAOYSA-N

> <Salt_Solvent>


> <Salt_Solvent_ID>
0

> <Number of connected components>
1

$$$$
Molecule_1637
  Mrv2316 01072400032D          

 54 60  0  0  0  0            999 V2000
   -4.2471    1.7187    0.0000 O   0  0  0  0  0  0  0  0  0  0  0  0
   -4.2471    2.5437    0.0000 C   0  0  0  0  0  0  0  0  0  0  0  0
   -4.9616    2.9562    0.0000 C   0  0  0  0  0  0  0  0  0  0  0  0
   -5.6761    2.5437    0.0000 N   0  0  0  0  0  0  0  0  0  0  0  0
   -6.3905    2.9562    0.0000 N   0  0  0  0  0  0  0  0  0  0  0  0
   -7.1050    2.5437    0.0000 C   0  0  0  0  0  0  0  0  0  0  0  0
   -7.8195    2.9563    0.0000 C   0  0  0  0  0  0  0  0  0  0  0  0
   -8.5340    2.5437    0.0000 C   0  0  0  0  0  0  0  0  0  0  0  0
   -9.2484    2.9563    0.0000 Cl  0  0  0  0  0  0  0  0  0  0  0  0
   -8.5340    1.7188    0.0000 C   0  0  0  0  0  0  0  0  0  0  0  0
   -7.8195    1.3063    0.0000 C   0  0  0  0  0  0  0  0  0  0  0  0
   -7.1050    1.7187    0.0000 C   0  0  0  0  0  0  0  0  0  0  0  0
   -6.3905    1.3062    0.0000 Cl  0  0  0  0  0  0  0  0  0  0  0  0
   -4.9616    3.7812    0.0000 C   0  0  0  0  0  0  0  0  0  0  0  0
   -5.6761    4.1937    0.0000 C   0  0  0  0  0  0  0  0  0  0  0  0
   -5.6761    5.0187    0.0000 C   0  0  0  0  0  0  0  0  0  0  0  0
   -4.9616    5.4312    0.0000 C   0  0  0  0  0  0  0  0  0  0  0  0
   -4.2471    5.0187    0.0000 C   0  0  0  0  0  0  0  0  0  0  0  0
   -4.2471    4.1937    0.0000 C   0  0  0  0  0  0  0  0  0  0  0  0
   -3.5327    3.7812    0.0000 C   0  0  0  0  0  0  0  0  0  0  0  0
   -3.5327    2.9562    0.0000 C   0  0  0  0  0  0  0  0  0  0  0  0
   -2.8182    2.5437    0.0000 C   0  0  0  0  0  0  0  0  0  0  0  0
   -2.1037    2.9563    0.0000 O   0  0  0  0  0  0  0  0  0  0  0  0
   -2.8182    1.7187    0.0000 N   0  0  0  0  0  0  0  0  0  0  0  0
   -2.1037    1.3063    0.0000 C   0  0  0  0  0  0  0  0  0  0  0  0
   -2.1037    0.4812    0.0000 C   0  0  0  0  0  0  0  0  0  0  0  0
   -1.3892    0.0688    0.0000 C   0  0  0  0  0  0  0  0  0  0  0  0
   -0.6748    0.4813    0.0000 C   0  0  0  0  0  0  0  0  0  0  0  0
    0.0397    0.0688    0.0000 N   0  0  0  0  0  0  0  0  0  0  0  0
    0.0397   -0.7562    0.0000 C   0  0  0  0  0  0  0  0  0  0  0  0
   -0.6748   -1.1687    0.0000 O   0  0  0  0  0  0  0  0  0  0  0  0
    0.7542   -1.1687    0.0000 C   0  0  0  0  0  0  0  0  0  0  0  0
    1.4686   -0.7562    0.0000 C   0  0  0  0  0  0  0  0  0  0  0  0
    2.1831   -1.1687    0.0000 C   0  0  0  0  0  0  0  0  0  0  0  0
    2.8976   -0.7562    0.0000 C   0  0  0  0  0  0  0  0  0  0  0  0
    3.6120   -1.1687    0.0000 C   0  0  0  0  0  0  0  0  0  0  0  0
    3.6120   -1.9937    0.0000 C   0  0  0  0  0  0  0  0  0  0  0  0
    2.8976   -2.4062    0.0000 C   0  0  0  0  0  0  0  0  0  0  0  0
    2.1831   -1.9937    0.0000 C   0  0  0  0  0  0  0  0  0  0  0  0
    1.4686   -2.4062    0.0000 C   0  0  0  0  0  0  0  0  0  0  0  0
    1.4686   -3.2312    0.0000 N   0  0  0  0  0  0  0  0  0  0  0  0
    0.7542   -3.6437    0.0000 N   0  0  0  0  0  0  0  0  0  0  0  0
    0.7542   -4.4687    0.0000 C   0  0  0  0  0  0  0  0  0  0  0  0
    0.0397   -4.8812    0.0000 C   0  0  0  0  0  0  0  0  0  0  0  0
    0.0397   -5.7062    0.0000 C   0  0  0  0  0  0  0  0  0  0  0  0
   -0.6748   -6.1187    0.0000 Cl  0  0  0  0  0  0  0  0  0  0  0  0
    0.7542   -6.1187    0.0000 C   0  0  0  0  0  0  0  0  0  0  0  0
    1.4686   -5.7062    0.0000 C   0  0  0  0  0  0  0  0  0  0  0  0
    1.4686   -4.8812    0.0000 C   0  0  0  0  0  0  0  0  0  0  0  0
    2.1831   -4.4687    0.0000 Cl  0  0  0  0  0  0  0  0  0  0  0  0
    0.7542   -1.9937    0.0000 C   0  0  0  0  0  0  0  0  0  0  0  0
    0.0397   -2.4062    0.0000 O   0  0  0  0  0  0  0  0  0  0  0  0
   -0.6748    1.3063    0.0000 C   0  0  0  0  0  0  0  0  0  0  0  0
   -1.3892    1.7188    0.0000 C   0  0  0  0  0  0  0  0  0  0  0  0
  1  2  1  0  0  0  0
  3  2  1  0  0  0  0
  4  3  1  4  0  0  0
  4  5  2  0  0  0  0
  5  6  1  0  0  0  0
  7  6  2  0  0  0  0
  8  7  1  0  0  0  0
  8  9  1  0  0  0  0
 10  8  2  0  0  0  0
 11 10  1  0  0  0  0
 12 11  2  0  0  0  0
  6 12  1  0  0  0  0
 12 13  1  0  0  0  0
 14  3  2  0  0  0  0
 14 15  1  0  0  0  0
 15 16  2  0  0  0  0
 16 17  1  0  0  0  0
 17 18  2  0  0  0  0
 18 19  1  0  0  0  0
 19 14  1  0  0  0  0
 20 19  2  0  0  0  0
 21 20  1  0  0  0  0
  2 21  2  0  0  0  0
 21 22  1  0  0  0  0
 22 23  2  0  0  0  0
 22 24  1  0  0  0  0
 24 25  1  0  0  0  0
 26 25  1  0  0  0  0
 27 26  2  0  0  0  0
 28 27  1  0  0  0  0
 28 29  1  0  0  0  0
 29 30  1  0  0  0  0
 30 31  2  0  0  0  0
 30 32  1  0  0  0  0
 33 32  2  0  0  0  0
 34 33  1  0  0  0  0
 34 35  2  0  0  0  0
 35 36  1  0  0  0  0
 36 37  2  0  0  0  0
 37 38  1  0  0  0  0
 38 39  2  0  0  0  0
 39 34  1  0  0  0  0
 40 39  1  0  0  0  0
 41 40  1  4  0  0  0
 41 42  2  0  0  0  0
 42 43  1  0  0  0  0
 44 43  1  0  0  0  0
 45 44  2  0  0  0  0
 45 46  1  0  0  0  0
 47 45  1  0  0  0  0
 48 47  2  0  0  0  0
 49 48  1  0  0  0  0
 43 49  2  0  0  0  0
 49 50  1  0  0  0  0
 51 40  2  0  0  0  0
 32 51  1  0  0  0  0
 51 52  1  0  0  0  0
 53 28  2  0  0  0  0
 54 53  1  0  0  0  0
 25 54  2  0  0  0  0
M  END
> <RowID>
1637

> <Original_SMILES>
OC1C(N=NC2=CC(Cl)=CC=C2Cl)=C2C=CC=CC2=CC=1C(=O)NC1C=CC(=CC=1)NC(=O)C1=CC2=CC=CC=C2C(N=NC2C=C(Cl)C=CC=2Cl)=C1O

> <Canonical_QSARr>
OC1C(N=NC2=CC(Cl)=CC=C2Cl)=C2C=CC=CC2=CC=1C(=O)NC1C=CC(=CC=1)NC(=O)C1=CC2=CC=CC=C2C(N=NC2C=C(Cl)C=CC=2Cl)=C1O

> <InChI_Code_QSARr>
InChI=1S/C40H24Cl4N6O4/c41-23-9-15-31(43)33(19-23)47-49-35-27-7-3-1-5-21(27)17-29(37(35)51)39(53)45-25-11-13-26(14-12-25)46-40(54)30-18-22-6-2-4-8-28(22)36(38(30)52)50-48-34-20-24(42)10-16-32(34)44/h1-20,51-52H,(H,45,53)(H,46,54)

> <InChI Key_QSARr>
NQDGNYQKISTHLK-UHFFFAOYSA-N

> <Salt_Solvent>


> <Salt_Solvent_ID>
0

> <Number of connected components>
1

$$$$
Molecule_1638
  Mrv2316 01072400032D          

 24 26  0  0  0  0            999 V2000
    5.9420   -4.4250    0.0000 C   0  0  0  0  0  0  0  0  0  0  0  0
    6.6565   -4.0125    0.0000 C   0  0  0  0  0  0  0  0  0  0  0  0
    6.6565   -3.1875    0.0000 C   0  0  0  0  0  0  0  0  0  0  0  0
    7.3710   -4.4250    0.0000 C   0  0  0  0  0  0  0  0  0  0  0  0
    7.3710   -5.2500    0.0000 O   0  0  0  0  0  0  0  0  0  0  0  0
    8.0854   -4.0125    0.0000 O   0  0  0  0  0  0  0  0  0  0  0  0
    8.7999   -4.4250    0.0000 C   0  0  0  0  0  0  0  0  0  0  0  0
    9.5144   -4.0125    0.0000 C   0  0  0  0  0  0  0  0  0  0  0  0
   10.2288   -4.4250    0.0000 C   0  0  0  0  0  0  0  0  0  0  0  0
   10.2288   -5.2500    0.0000 C   0  0  0  0  0  0  0  0  0  0  0  0
   10.9433   -5.6625    0.0000 C   0  0  0  0  0  0  0  0  0  0  0  0
   11.6578   -5.2500    0.0000 C   0  0  0  0  0  0  0  0  0  0  0  0
   12.3722   -5.6625    0.0000 O   0  0  0  0  0  0  0  0  0  0  0  0
   11.6578   -4.4250    0.0000 C   0  0  0  0  0  0  0  0  0  0  0  0
   12.3722   -4.0125    0.0000 N   0  0  0  0  0  0  0  0  0  0  0  0
   12.4585   -3.1920    0.0000 N   0  0  0  0  0  0  0  0  0  0  0  0
   13.2655   -3.0205    0.0000 C   0  0  0  0  0  0  0  0  0  0  0  0
   13.6780   -2.3060    0.0000 C   0  0  0  0  0  0  0  0  0  0  0  0
   14.5030   -2.3060    0.0000 C   0  0  0  0  0  0  0  0  0  0  0  0
   14.9155   -3.0205    0.0000 C   0  0  0  0  0  0  0  0  0  0  0  0
   14.5030   -3.7350    0.0000 C   0  0  0  0  0  0  0  0  0  0  0  0
   13.6780   -3.7350    0.0000 C   0  0  0  0  0  0  0  0  0  0  0  0
   13.1259   -4.3481    0.0000 N   0  0  0  0  0  0  0  0  0  0  0  0
   10.9433   -4.0125    0.0000 C   0  0  0  0  0  0  0  0  0  0  0  0
  1  2  1  0  0  0  0
  2  3  2  0  0  0  0
  2  4  1  0  0  0  0
  4  5  2  0  0  0  0
  4  6  1  0  0  0  0
  6  7  1  0  0  0  0
  7  8  1  0  0  0  0
  8  9  1  0  0  0  0
 10  9  1  0  0  0  0
 11 10  2  0  0  0  0
 12 11  1  0  0  0  0
 12 13  1  0  0  0  0
 14 12  2  0  0  0  0
 14 15  1  0  0  0  0
 16 15  1  0  0  0  0
 17 16  2  0  0  0  0
 17 18  1  0  0  0  0
 18 19  2  0  0  0  0
 19 20  1  0  0  0  0
 20 21  2  0  0  0  0
 21 22  1  0  0  0  0
 22 17  1  0  0  0  0
 23 22  2  0  0  0  0
 15 23  1  0  0  0  0
 24 14  1  0  0  0  0
  9 24  2  0  0  0  0
M  END
> <RowID>
1638

> <Original_SMILES>
CC(=C)C(=O)OCCC1C=CC(O)=C(C=1)N1N=C2C=CC=CC2=N1

> <Canonical_QSARr>
CC(=C)C(=O)OCCC1C=CC(O)=C(C=1)N1N=C2C=CC=CC2=N1

> <InChI_Code_QSARr>
InChI=1S/C18H17N3O3/c1-12(2)18(23)24-10-9-13-7-8-17(22)16(11-13)21-19-14-5-3-4-6-15(14)20-21/h3-8,11,22H,1,9-10H2,2H3

> <InChI Key_QSARr>
VCYCUECVHJJFIQ-UHFFFAOYSA-N

> <Salt_Solvent>


> <Salt_Solvent_ID>
0

> <Number of connected components>
1

$$$$
Molecule_1639
  Mrv2316 01072400032D          

 26 25  0  0  0  0            999 V2000
   11.6605    7.5572    0.0000 C   0  0  0  0  0  0  0  0  0  0  0  0
   12.3750    7.1447    0.0000 C   0  0  0  0  0  0  0  0  0  0  0  0
   13.0895    7.5572    0.0000 C   0  0  0  0  0  0  0  0  0  0  0  0
   13.8039    7.1447    0.0000 C   0  0  0  0  0  0  0  0  0  0  0  0
   14.5184    7.5572    0.0000 C   0  0  0  0  0  0  0  0  0  0  0  0
   15.2329    7.1447    0.0000 C   0  0  0  0  0  0  0  0  0  0  0  0
   15.9473    7.5572    0.0000 C   0  0  0  0  0  0  0  0  0  0  0  0
   15.9473    8.3822    0.0000 O   0  0  0  0  0  0  0  0  0  0  0  0
   16.6618    7.1447    0.0000 C   0  0  0  0  0  0  0  0  0  0  0  0
   17.3763    7.5572    0.0000 C   0  0  0  0  0  0  0  0  0  0  0  0
   18.0908    7.1447    0.0000 C   0  0  0  0  0  0  0  0  0  0  0  0
   18.8052    7.5572    0.0000 C   0  0  0  0  0  0  0  0  0  0  0  0
   19.5197    7.1447    0.0000 C   0  0  0  0  0  0  0  0  0  0  0  0
   20.2342    7.5572    0.0000 C   0  0  0  0  0  0  0  0  0  0  0  0
   20.9486    7.1447    0.0000 C   0  0  0  0  0  0  0  0  0  0  0  0
   21.6631    7.5572    0.0000 C   0  0  0  0  0  0  0  0  0  0  0  0
   22.3776    7.1447    0.0000 C   0  0  0  0  0  0  0  0  0  0  0  0
   23.0921    7.5572    0.0000 C   0  0  0  0  0  0  0  0  0  0  0  0
   23.8065    7.1447    0.0000 C   0  0  0  0  0  0  0  0  0  0  0  0
   23.8065    6.3197    0.0000 O   0  0  0  0  0  0  0  0  0  0  0  0
   24.5210    7.5572    0.0000 O   0  0  0  0  0  0  0  0  0  0  0  0
   25.2355    7.1447    0.0000 C   0  0  0  0  0  0  0  0  0  0  0  0
   25.9499    7.5572    0.0000 C   0  0  0  0  0  0  0  0  0  0  0  0
   25.9499    8.3822    0.0000 O   0  0  0  0  0  0  0  0  0  0  0  0
   26.6644    7.1447    0.0000 C   0  0  0  0  0  0  0  0  0  0  0  0
   27.3789    7.5572    0.0000 O   0  0  0  0  0  0  0  0  0  0  0  0
  1  2  1  0  0  0  0
  2  3  1  0  0  0  0
  3  4  1  0  0  0  0
  4  5  1  0  0  0  0
  5  6  1  0  0  0  0
  6  7  1  0  0  0  0
  7  8  1  0  0  0  0
  7  9  1  0  0  0  0
  9 10  1  0  0  0  0
 10 11  1  0  0  0  0
 11 12  1  0  0  0  0
 12 13  1  0  0  0  0
 13 14  1  0  0  0  0
 14 15  1  0  0  0  0
 15 16  1  0  0  0  0
 16 17  1  0  0  0  0
 17 18  1  0  0  0  0
 18 19  1  0  0  0  0
 19 20  2  0  0  0  0
 19 21  1  0  0  0  0
 21 22  1  0  0  0  0
 22 23  1  0  0  0  0
 23 24  1  0  0  0  0
 23 25  1  0  0  0  0
 25 26  1  0  0  0  0
M  END
> <RowID>
1639

> <Original_SMILES>
CCCCCCC(O)CCCCCCCCCCC(=O)OCC(O)CO

> <Canonical_QSARr>
CCCCCCC(O)CCCCCCCCCCC(=O)OCC(O)CO

> <InChI_Code_QSARr>
InChI=1S/C21H42O5/c1-2-3-4-11-14-19(23)15-12-9-7-5-6-8-10-13-16-21(25)26-18-20(24)17-22/h19-20,22-24H,2-18H2,1H3

> <InChI Key_QSARr>
RVNAQNUKCZKJCP-UHFFFAOYSA-N

> <Salt_Solvent>


> <Salt_Solvent_ID>
0

> <Number of connected components>
1

$$$$
Molecule_1640
  Mrv2316 01072400032D          

 12 11  0  0  0  0            999 V2000
    4.2355    3.2704    0.0000 C   0  0  0  0  0  0  0  0  0  0  0  0
    4.9500    2.8579    0.0000 C   0  0  0  0  0  0  0  0  0  0  0  0
    5.6645    3.2704    0.0000 C   0  0  0  0  0  0  0  0  0  0  0  0
    6.3789    2.8579    0.0000 C   0  0  0  0  0  0  0  0  0  0  0  0
    7.0934    3.2704    0.0000 C   0  0  0  0  0  0  0  0  0  0  0  0
    7.8079    2.8579    0.0000 C   0  0  0  0  0  0  0  0  0  0  0  0
    8.5224    3.2704    0.0000 C   0  0  0  0  0  0  0  0  0  0  0  0
    9.2368    2.8579    0.0000 C   0  0  0  0  0  0  0  0  0  0  0  0
    9.9513    3.2704    0.0000 O   0  0  0  0  0  0  0  0  0  0  0  0
   10.6658    2.8579    0.0000 C   0  0  0  0  0  0  0  0  0  0  0  0
   11.3802    3.2704    0.0000 C   0  0  0  0  0  0  0  0  0  0  0  0
   10.6658    2.0329    0.0000 O   0  0  0  0  0  0  0  0  0  0  0  0
  1  2  1  0  0  0  0
  2  3  1  0  0  0  0
  3  4  1  0  0  0  0
  4  5  1  0  0  0  0
  5  6  1  0  0  0  0
  6  7  1  0  0  0  0
  7  8  1  0  0  0  0
  8  9  1  0  0  0  0
  9 10  1  0  0  0  0
 10 11  1  0  0  0  0
 10 12  2  0  0  0  0
M  END
> <RowID>
1640

> <Original_SMILES>
CCCCCCCCOC(C)=O

> <Canonical_QSARr>
CCCCCCCCOC(C)=O

> <InChI_Code_QSARr>
InChI=1S/C10H20O2/c1-3-4-5-6-7-8-9-12-10(2)11/h3-9H2,1-2H3

> <InChI Key_QSARr>
YLYBTZIQSIBWLI-UHFFFAOYSA-N

> <Salt_Solvent>


> <Salt_Solvent_ID>
0

> <Number of connected components>
1

$$$$
Molecule_1644
  Mrv2316 01072400032D          

 14 14  0  0  0  0            999 V2000
    0.9696   -0.1473    0.0000 C   0  0  0  0  0  0  0  0  0  0  0  0
    1.6841    0.2652    0.0000 C   0  0  0  0  0  0  0  0  0  0  0  0
    2.3986   -0.1473    0.0000 C   0  0  0  0  0  0  0  0  0  0  0  0
    3.1131    0.2652    0.0000 C   0  0  0  0  0  0  0  0  0  0  0  0
    3.1131    1.0902    0.0000 C   0  0  0  0  0  0  0  0  0  0  0  0
    2.3986    1.5027    0.0000 C   0  0  0  0  0  0  0  0  0  0  0  0
    2.9289    2.1347    0.0000 C   0  0  0  0  0  0  0  0  0  0  0  0
    1.8683    2.1347    0.0000 C   0  0  0  0  0  0  0  0  0  0  0  0
    1.6841    1.0902    0.0000 C   0  0  0  0  0  0  0  0  0  0  0  0
    0.9696    1.5027    0.0000 C   0  0  0  0  0  0  0  0  0  0  0  0
    0.9696    2.3277    0.0000 O   0  0  0  0  0  0  0  0  0  0  0  0
    0.2552    1.0902    0.0000 C   0  0  0  0  0  0  0  0  0  0  0  0
   -0.4593    1.5027    0.0000 C   0  0  0  0  0  0  0  0  0  0  0  0
   -1.1738    1.0902    0.0000 C   0  0  0  0  0  0  0  0  0  0  0  0
  1  2  1  0  0  0  0
  3  2  1  0  0  0  0
  4  3  2  0  0  0  0
  5  4  1  0  0  0  0
  6  5  1  0  0  0  0
  6  7  1  0  0  0  0
  6  8  1  0  0  0  0
  9  6  1  0  0  0  0
  2  9  2  0  0  0  0
  9 10  1  0  0  0  0
 10 11  2  0  0  0  0
 10 12  1  0  0  0  0
 12 13  2  0  0  0  0
 13 14  1  4  0  0  0
M  END
> <RowID>
1644

> <Original_SMILES>
CC1C=CCC(C)(C)C=1C(=O)C=CC

> <Canonical_QSARr>
CC1C=CCC(C)(C)C=1C(=O)C=CC

> <InChI_Code_QSARr>
InChI=1S/C13H18O/c1-5-7-11(14)12-10(2)8-6-9-13(12,3)4/h5-8H,9H2,1-4H3

> <InChI Key_QSARr>
POIARNZEYGURDG-UHFFFAOYSA-N

> <Salt_Solvent>


> <Salt_Solvent_ID>
0

> <Number of connected components>
1

$$$$
Molecule_1645
  Mrv2316 01072400032D          

 24 25  0  0  0  0            999 V2000
    4.6441   -7.2188    0.0000 N   0  0  0  0  0  0  0  0  0  0  0  0
    3.9296   -6.8063    0.0000 C   0  0  0  0  0  0  0  0  0  0  0  0
    3.9296   -5.9813    0.0000 C   0  0  0  0  0  0  0  0  0  0  0  0
    3.2151   -5.5688    0.0000 C   0  0  0  0  0  0  0  0  0  0  0  0
    3.2151   -4.7438    0.0000 S   0  0  0  0  0  0  0  0  0  0  0  0
    3.2151   -3.9188    0.0000 O   0  0  0  0  0  0  0  0  0  0  0  0
    2.3901   -4.7438    0.0000 O   0  0  0  0  0  0  0  0  0  0  0  0
    4.0401   -4.7438    0.0000 O   0  0  0  0  0  0  0  0  0  0  0  0
    2.5006   -5.9813    0.0000 C   0  0  0  0  0  0  0  0  0  0  0  0
    1.7862   -5.5688    0.0000 C   0  0  0  0  0  0  0  0  0  0  0  0
    1.7862   -4.7438    0.0000 C   0  0  0  0  0  0  0  0  0  0  0  0
    1.0717   -4.3313    0.0000 C   0  0  0  0  0  0  0  0  0  0  0  0
    1.0717   -3.5063    0.0000 C   0  0  0  0  0  0  0  0  0  0  0  0
    0.3572   -3.0938    0.0000 C   0  0  0  0  0  0  0  0  0  0  0  0
   -0.3572   -3.5063    0.0000 C   0  0  0  0  0  0  0  0  0  0  0  0
   -1.0717   -3.0938    0.0000 N   0  0  0  0  0  0  0  0  0  0  0  0
   -0.3572   -4.3313    0.0000 C   0  0  0  0  0  0  0  0  0  0  0  0
    0.3572   -4.7438    0.0000 C   0  0  0  0  0  0  0  0  0  0  0  0
    0.3572   -5.5688    0.0000 S   0  0  0  0  0  0  0  0  0  0  0  0
    0.3572   -6.3938    0.0000 O   0  0  0  0  0  0  0  0  0  0  0  0
    1.1822   -5.5688    0.0000 O   0  0  0  0  0  0  0  0  0  0  0  0
   -0.4678   -5.5688    0.0000 O   0  0  0  0  0  0  0  0  0  0  0  0
    2.5006   -6.8063    0.0000 C   0  0  0  0  0  0  0  0  0  0  0  0
    3.2151   -7.2188    0.0000 C   0  0  0  0  0  0  0  0  0  0  0  0
  1  2  1  0  0  0  0
  3  2  2  0  0  0  0
  4  3  1  0  0  0  0
  4  5  1  0  0  0  0
  5  6  1  0  0  0  0
  5  7  2  0  0  0  0
  5  8  2  0  0  0  0
  9  4  2  0  0  0  0
 10  9  1  4  0  0  0
 10 11  2  0  0  0  0
 11 12  1  0  0  0  0
 13 12  1  0  0  0  0
 14 13  2  0  0  0  0
 15 14  1  0  0  0  0
 15 16  1  0  0  0  0
 17 15  2  0  0  0  0
 18 17  1  0  0  0  0
 12 18  2  0  0  0  0
 18 19  1  0  0  0  0
 19 20  1  0  0  0  0
 19 21  2  0  0  0  0
 19 22  2  0  0  0  0
 23  9  1  0  0  0  0
 24 23  2  0  0  0  0
  2 24  1  0  0  0  0
M  END
> <RowID>
1645

> <Original_SMILES>
NC1=CC(=C(C=CC2C=CC(N)=CC=2S(O)(=O)=O)C=C1)S(O)(=O)=O

> <Canonical_QSARr>
NC1=CC(=C(C=CC2C=CC(N)=CC=2S(O)(=O)=O)C=C1)S(O)(=O)=O

> <InChI_Code_QSARr>
InChI=1S/C14H14N2O6S2/c15-11-5-3-9(13(7-11)23(17,18)19)1-2-10-4-6-12(16)8-14(10)24(20,21)22/h1-8H,15-16H2,(H,17,18,19)(H,20,21,22)

> <InChI Key_QSARr>
REJHVSOVQBJEBF-UHFFFAOYSA-N

> <Salt_Solvent>


> <Salt_Solvent_ID>
0

> <Number of connected components>
1

$$$$
Molecule_1646
  Mrv2316 01072400032D          

  9  9  0  0  0  0            999 V2000
    1.4289    2.4750    0.0000 C   0  0  0  0  0  0  0  0  0  0  0  0
    0.7145    2.0625    0.0000 C   0  0  0  0  0  0  0  0  0  0  0  0
   -0.0000    2.4750    0.0000 C   0  0  0  0  0  0  0  0  0  0  0  0
    0.7145    1.2375    0.0000 C   0  0  0  0  0  0  0  0  0  0  0  0
   -0.0000    0.8250    0.0000 C   0  0  0  0  0  0  0  0  0  0  0  0
   -0.0000   -0.0000    0.0000 C   0  0  0  0  0  0  0  0  0  0  0  0
    0.7145   -0.4125    0.0000 C   0  0  0  0  0  0  0  0  0  0  0  0
    1.4289    0.0000    0.0000 C   0  0  0  0  0  0  0  0  0  0  0  0
    1.4289    0.8250    0.0000 C   0  0  0  0  0  0  0  0  0  0  0  0
  1  2  1  0  0  0  0
  2  3  1  0  0  0  0
  2  4  1  0  0  0  0
  5  4  1  0  0  0  0
  6  5  2  0  0  0  0
  7  6  1  0  0  0  0
  8  7  2  0  0  0  0
  9  8  1  0  0  0  0
  4  9  2  0  0  0  0
M  END
> <RowID>
1646

> <Original_SMILES>
CC(C)C1C=CC=CC=1

> <Canonical_QSARr>
CC(C)C1C=CC=CC=1

> <InChI_Code_QSARr>
InChI=1S/C9H12/c1-8(2)9-6-4-3-5-7-9/h3-8H,1-2H3

> <InChI Key_QSARr>
RWGFKTVRMDUZSP-UHFFFAOYSA-N

> <Salt_Solvent>


> <Salt_Solvent_ID>
0

> <Number of connected components>
1

$$$$
Molecule_1647
  Mrv2316 01072400032D          

 27 29  0  0  0  0            999 V2000
    0.0348   -0.7437    0.0000 C   0  0  0  0  0  0  0  0  0  0  0  0
    0.8194   -0.4888    0.0000 N   0  0  0  0  0  0  0  0  0  0  0  0
    1.4325   -1.0408    0.0000 N   0  0  0  0  0  0  0  0  0  0  0  0
    2.2172   -0.7859    0.0000 C   0  0  0  0  0  0  0  0  0  0  0  0
    2.8303   -1.3379    0.0000 C   0  0  0  0  0  0  0  0  0  0  0  0
    3.6149   -1.0829    0.0000 C   0  0  0  0  0  0  0  0  0  0  0  0
    4.2280   -1.6350    0.0000 S   0  0  0  0  0  0  0  0  0  0  0  0
    4.8411   -2.1870    0.0000 O   0  0  0  0  0  0  0  0  0  0  0  0
    4.7800   -1.0219    0.0000 O   0  0  0  0  0  0  0  0  0  0  0  0
    3.6759   -2.2481    0.0000 N   0  0  0  0  0  0  0  0  0  0  0  0
    3.7864   -0.2760    0.0000 C   0  0  0  0  0  0  0  0  0  0  0  0
    3.1733    0.2761    0.0000 C   0  0  0  0  0  0  0  0  0  0  0  0
    2.3887    0.0211    0.0000 C   0  0  0  0  0  0  0  0  0  0  0  0
    1.7756    0.5732    0.0000 O   0  0  0  0  0  0  0  0  0  0  0  0
   -0.6326   -0.2588    0.0000 C   0  0  0  0  0  0  0  0  0  0  0  0
   -0.6326    0.5662    0.0000 O   0  0  0  0  0  0  0  0  0  0  0  0
   -1.3001   -0.7437    0.0000 N   0  0  0  0  0  0  0  0  0  0  0  0
   -2.0847   -0.4888    0.0000 C   0  0  0  0  0  0  0  0  0  0  0  0
   -2.2562    0.3182    0.0000 C   0  0  0  0  0  0  0  0  0  0  0  0
   -3.0408    0.5732    0.0000 C   0  0  0  0  0  0  0  0  0  0  0  0
   -3.6539    0.0211    0.0000 C   0  0  0  0  0  0  0  0  0  0  0  0
   -3.4824   -0.7859    0.0000 C   0  0  0  0  0  0  0  0  0  0  0  0
   -4.0955   -1.3379    0.0000 Cl  0  0  0  0  0  0  0  0  0  0  0  0
   -2.6978   -1.0408    0.0000 C   0  0  0  0  0  0  0  0  0  0  0  0
   -1.0451   -1.5283    0.0000 N   0  0  0  0  0  0  0  0  0  0  0  0
   -0.2201   -1.5283    0.0000 C   0  0  0  0  0  0  0  0  0  0  0  0
    0.2648   -2.1958    0.0000 C   0  0  0  0  0  0  0  0  0  0  0  0
  2  1  1  4  0  0  0
  2  3  2  0  0  0  0
  3  4  1  0  0  0  0
  5  4  1  0  0  0  0
  6  5  2  0  0  0  0
  6  7  1  0  0  0  0
  7  8  2  0  0  0  0
  7  9  2  0  0  0  0
  7 10  1  0  0  0  0
 11  6  1  0  0  0  0
 12 11  2  0  0  0  0
 13 12  1  0  0  0  0
  4 13  2  0  0  0  0
 13 14  1  0  0  0  0
 15  1  1  0  0  0  0
 15 16  2  0  0  0  0
 17 15  1  0  0  0  0
 17 18  1  0  0  0  0
 19 18  2  0  0  0  0
 20 19  1  0  0  0  0
 21 20  2  0  0  0  0
 22 21  1  0  0  0  0
 22 23  1  0  0  0  0
 24 22  2  0  0  0  0
 18 24  1  0  0  0  0
 25 17  1  0  0  0  0
 26 25  2  0  0  0  0
  1 26  1  0  0  0  0
 26 27  1  0  0  0  0
M  END
> <RowID>
1647

> <Original_SMILES>
[Na+].[Co+3].CC1=NN(C2=CC(Cl)=CC=C2)C(=O)[C-]1N=NC1C=C(C=CC=1[O-])S(N)(=O)=O.CC1=NN(C2=CC(Cl)=CC=C2)C(=O)[C-]1N=NC1C=C(C=CC=1[O-])S(N)(=O)=O

> <Canonical_QSARr>
CC1=NN(C2C=C(Cl)C=CC=2)C(=O)C1N=NC1C=C(C=CC=1O)S(N)(=O)=O

> <InChI_Code_QSARr>
InChI=1S/C16H14ClN5O4S/c1-9-15(16(24)22(21-9)11-4-2-3-10(17)7-11)20-19-13-8-12(27(18,25)26)5-6-14(13)23/h2-8,15,23H,1H3,(H2,18,25,26)

> <InChI Key_QSARr>
OJPWRGICTAMXKT-UHFFFAOYSA-N

> <Salt_Solvent>
[Na+].[Co+3]

> <Salt_Solvent_ID>
190

> <Number of connected components>
4

$$$$
Molecule_1648
  Mrv2316 01072400032D          

 14 13  0  0  0  0            999 V2000
    4.7586    3.5724    0.0000 C   0  0  0  0  0  0  0  0  0  0  0  0
    5.4730    3.9849    0.0000 C   0  0  0  0  0  0  0  0  0  0  0  0
    6.1875    3.5724    0.0000 C   0  0  0  0  0  0  0  0  0  0  0  0
    6.9020    3.9849    0.0000 C   0  0  0  0  0  0  0  0  0  0  0  0
    7.6164    3.5724    0.0000 O   0  0  0  0  0  0  0  0  0  0  0  0
    8.3309    3.9849    0.0000 C   0  0  0  0  0  0  0  0  0  0  0  0
    9.0454    3.5724    0.0000 C   0  0  0  0  0  0  0  0  0  0  0  0
    9.7599    3.9849    0.0000 O   0  0  0  0  0  0  0  0  0  0  0  0
   10.4743    3.5724    0.0000 C   0  0  0  0  0  0  0  0  0  0  0  0
   11.1888    3.9849    0.0000 C   0  0  0  0  0  0  0  0  0  0  0  0
   11.9033    3.5724    0.0000 O   0  0  0  0  0  0  0  0  0  0  0  0
   12.6177    3.9849    0.0000 C   0  0  0  0  0  0  0  0  0  0  0  0
   13.3322    3.5724    0.0000 C   0  0  0  0  0  0  0  0  0  0  0  0
   14.0467    3.9849    0.0000 O   0  0  0  0  0  0  0  0  0  0  0  0
  1  2  1  0  0  0  0
  2  3  1  0  0  0  0
  3  4  1  0  0  0  0
  4  5  1  0  0  0  0
  5  6  1  0  0  0  0
  6  7  1  0  0  0  0
  7  8  1  0  0  0  0
  8  9  1  0  0  0  0
  9 10  1  0  0  0  0
 10 11  1  0  0  0  0
 11 12  1  0  0  0  0
 12 13  1  0  0  0  0
 13 14  1  0  0  0  0
M  END
> <RowID>
1648

> <Original_SMILES>
CCCCOCCOCCOCCO

> <Canonical_QSARr>
CCCCOCCOCCOCCO

> <InChI_Code_QSARr>
InChI=1S/C10H22O4/c1-2-3-5-12-7-9-14-10-8-13-6-4-11/h11H,2-10H2,1H3

> <InChI Key_QSARr>
COBPKKZHLDDMTB-UHFFFAOYSA-N

> <Salt_Solvent>


> <Salt_Solvent_ID>
0

> <Number of connected components>
1

$$$$
Molecule_1649
  Mrv2316 01072400032D          

 19 18  0  0  0  0            999 V2000
    7.9480    5.4138    0.0000 C   0  0  0  0  0  0  0  0  0  0  0  0
    8.6625    5.0013    0.0000 C   0  0  0  0  0  0  0  0  0  0  0  0
    9.3770    5.4138    0.0000 C   0  0  0  0  0  0  0  0  0  0  0  0
   10.0914    5.0013    0.0000 C   0  0  0  0  0  0  0  0  0  0  0  0
   10.8059    5.4138    0.0000 C   0  0  0  0  0  0  0  0  0  0  0  0
   11.5204    5.0013    0.0000 C   0  0  0  0  0  0  0  0  0  0  0  0
   12.2349    5.4138    0.0000 C   0  0  0  0  0  0  0  0  0  0  0  0
   12.9493    5.0013    0.0000 C   0  0  0  0  0  0  0  0  0  0  0  0
   13.6638    5.4138    0.0000 C   0  0  0  0  0  0  0  0  0  0  0  0
   14.3783    5.0013    0.0000 C   0  0  0  0  0  0  0  0  0  0  0  0
   15.0927    5.4138    0.0000 C   0  0  0  0  0  0  0  0  0  0  0  0
   15.8072    5.0013    0.0000 C   0  0  0  0  0  0  0  0  0  0  0  0
   15.8072    4.1763    0.0000 O   0  0  0  0  0  0  0  0  0  0  0  0
   16.5217    5.4138    0.0000 O   0  0  0  0  0  0  0  0  0  0  0  0
   17.2362    5.0013    0.0000 C   0  0  0  0  0  0  0  0  0  0  0  0
   17.9506    5.4138    0.0000 C   0  0  0  0  0  0  0  0  0  0  0  0
   18.6651    5.0013    0.0000 C   0  0  0  0  0  0  0  0  0  0  0  0
   19.3796    5.4138    0.0000 C   0  0  0  0  0  0  0  0  0  0  0  0
   18.6651    4.1763    0.0000 C   0  0  0  0  0  0  0  0  0  0  0  0
  1  2  1  0  0  0  0
  2  3  1  0  0  0  0
  3  4  1  0  0  0  0
  4  5  1  0  0  0  0
  5  6  1  0  0  0  0
  6  7  1  0  0  0  0
  7  8  1  0  0  0  0
  8  9  1  0  0  0  0
  9 10  1  0  0  0  0
 10 11  1  0  0  0  0
 11 12  1  0  0  0  0
 12 13  2  0  0  0  0
 12 14  1  0  0  0  0
 14 15  1  0  0  0  0
 15 16  1  0  0  0  0
 16 17  1  0  0  0  0
 17 18  1  0  0  0  0
 17 19  1  0  0  0  0
M  END
> <RowID>
1649

> <Original_SMILES>
CCCCCCCCCCCC(=O)OCCC(C)C

> <Canonical_QSARr>
CCCCCCCCCCCC(=O)OCCC(C)C

> <InChI_Code_QSARr>
InChI=1S/C17H34O2/c1-4-5-6-7-8-9-10-11-12-13-17(18)19-15-14-16(2)3/h16H,4-15H2,1-3H3

> <InChI Key_QSARr>
FVKRIDSRWFEQME-UHFFFAOYSA-N

> <Salt_Solvent>


> <Salt_Solvent_ID>
0

> <Number of connected components>
1

$$$$
Molecule_1650
  Mrv2316 01072400032D          

 11 10  0  0  0  0            999 V2000
    0.4125    2.1434    0.0000 C   0  0  0  0  0  0  0  0  0  0  0  0
    0.8250    1.4289    0.0000 N   0  3  0  0  0  0  0  0  0  0  0  0
    0.1105    1.0164    0.0000 C   0  0  0  0  0  0  0  0  0  0  0  0
   -0.6039    1.4289    0.0000 C   0  0  0  0  0  0  0  0  0  0  0  0
   -1.3184    1.0164    0.0000 O   0  0  0  0  0  0  0  0  0  0  0  0
    1.5395    1.8414    0.0000 C   0  0  0  0  0  0  0  0  0  0  0  0
    2.2539    1.4289    0.0000 C   0  0  0  0  0  0  0  0  0  0  0  0
    2.9684    1.8414    0.0000 O   0  0  0  0  0  0  0  0  0  0  0  0
    1.2375    0.7144    0.0000 C   0  0  0  0  0  0  0  0  0  0  0  0
    0.8250   -0.0000    0.0000 C   0  0  0  0  0  0  0  0  0  0  0  0
    0.0000   -0.0000    0.0000 O   0  0  0  0  0  0  0  0  0  0  0  0
  1  2  1  0  0  0  0
  2  3  1  0  0  0  0
  3  4  1  0  0  0  0
  4  5  1  0  0  0  0
  2  6  1  0  0  0  0
  6  7  1  0  0  0  0
  7  8  1  0  0  0  0
  2  9  1  0  0  0  0
  9 10  1  0  0  0  0
 10 11  1  0  0  0  0
M  CHG  1   2   1
M  END
> <RowID>
1650

> <Original_SMILES>
COS([O-])(=O)=O.C[N+](CCO)(CCO)CCO

> <Canonical_QSARr>
C[N+](CCO)(CCO)CCO

> <InChI_Code_QSARr>
InChI=1S/C7H18NO3/c1-8(2-5-9,3-6-10)4-7-11/h9-11H,2-7H2,1H3/q+1

> <InChI Key_QSARr>
FVJLCPJDDAGIJE-UHFFFAOYSA-N

> <Salt_Solvent>
COS(=O)(=O)[O-]

> <Salt_Solvent_ID>
2242

> <Number of connected components>
2

$$$$
Molecule_1651
  Mrv2316 01072400032D          

 36 36  0  0  0  0            999 V2000
    2.0241    5.9808    0.0000 C   0  0  0  0  0  0  0  0  0  0  0  0
    2.0241    5.1558    0.0000 C   0  0  0  0  0  0  0  0  0  0  0  0
    1.3096    4.7433    0.0000 C   0  0  0  0  0  0  0  0  0  0  0  0
    1.3096    3.9183    0.0000 C   0  0  0  0  0  0  0  0  0  0  0  0
    0.5952    3.5058    0.0000 C   0  0  0  0  0  0  0  0  0  0  0  0
   -0.1193    3.9183    0.0000 S   0  0  0  0  0  0  0  0  0  0  0  0
   -0.8338    3.5058    0.0000 C   0  0  0  0  0  0  0  0  0  0  0  0
   -1.5483    3.9183    0.0000 C   0  0  0  0  0  0  0  0  0  0  0  0
   -2.2627    3.5058    0.0000 C   0  0  0  0  0  0  0  0  0  0  0  0
   -2.9772    3.9183    0.0000 C   0  0  0  0  0  0  0  0  0  0  0  0
   -3.6917    3.5058    0.0000 C   0  0  0  0  0  0  0  0  0  0  0  0
   -4.4061    3.9183    0.0000 C   0  0  0  0  0  0  0  0  0  0  0  0
   -5.1206    3.5058    0.0000 C   0  0  0  0  0  0  0  0  0  0  0  0
   -5.8351    3.9183    0.0000 C   0  0  0  0  0  0  0  0  0  0  0  0
   -6.5495    3.5058    0.0000 C   0  0  0  0  0  0  0  0  0  0  0  0
   -7.2640    3.9183    0.0000 C   0  0  0  0  0  0  0  0  0  0  0  0
   -7.9785    3.5058    0.0000 C   0  0  0  0  0  0  0  0  0  0  0  0
   -8.6930    3.9183    0.0000 C   0  0  0  0  0  0  0  0  0  0  0  0
    2.0241    3.5058    0.0000 C   0  0  0  0  0  0  0  0  0  0  0  0
    2.7386    3.9183    0.0000 C   0  0  0  0  0  0  0  0  0  0  0  0
    3.4530    3.5058    0.0000 C   0  0  0  0  0  0  0  0  0  0  0  0
    4.1675    3.9183    0.0000 S   0  0  0  0  0  0  0  0  0  0  0  0
    4.8820    3.5058    0.0000 C   0  0  0  0  0  0  0  0  0  0  0  0
    5.5965    3.9183    0.0000 C   0  0  0  0  0  0  0  0  0  0  0  0
    6.3109    3.5058    0.0000 C   0  0  0  0  0  0  0  0  0  0  0  0
    7.0254    3.9183    0.0000 C   0  0  0  0  0  0  0  0  0  0  0  0
    7.7399    3.5058    0.0000 C   0  0  0  0  0  0  0  0  0  0  0  0
    8.4543    3.9183    0.0000 C   0  0  0  0  0  0  0  0  0  0  0  0
    9.1688    3.5058    0.0000 C   0  0  0  0  0  0  0  0  0  0  0  0
    9.8833    3.9183    0.0000 C   0  0  0  0  0  0  0  0  0  0  0  0
   10.5978    3.5058    0.0000 C   0  0  0  0  0  0  0  0  0  0  0  0
   11.3122    3.9183    0.0000 C   0  0  0  0  0  0  0  0  0  0  0  0
   12.0267    3.5058    0.0000 C   0  0  0  0  0  0  0  0  0  0  0  0
   12.7412    3.9183    0.0000 C   0  0  0  0  0  0  0  0  0  0  0  0
    2.7386    4.7433    0.0000 C   0  0  0  0  0  0  0  0  0  0  0  0
    3.4530    5.1558    0.0000 O   0  0  0  0  0  0  0  0  0  0  0  0
  1  2  1  0  0  0  0
  3  2  2  0  0  0  0
  4  3  1  0  0  0  0
  4  5  1  0  0  0  0
  5  6  1  0  0  0  0
  6  7  1  0  0  0  0
  7  8  1  0  0  0  0
  8  9  1  0  0  0  0
  9 10  1  0  0  0  0
 10 11  1  0  0  0  0
 11 12  1  0  0  0  0
 12 13  1  0  0  0  0
 13 14  1  0  0  0  0
 14 15  1  0  0  0  0
 15 16  1  0  0  0  0
 16 17  1  0  0  0  0
 17 18  1  0  0  0  0
 19  4  2  0  0  0  0
 20 19  1  0  0  0  0
 20 21  1  0  0  0  0
 21 22  1  0  0  0  0
 22 23  1  0  0  0  0
 23 24  1  0  0  0  0
 24 25  1  0  0  0  0
 25 26  1  0  0  0  0
 26 27  1  0  0  0  0
 27 28  1  0  0  0  0
 28 29  1  0  0  0  0
 29 30  1  0  0  0  0
 30 31  1  0  0  0  0
 31 32  1  0  0  0  0
 32 33  1  0  0  0  0
 33 34  1  0  0  0  0
 35 20  2  0  0  0  0
  2 35  1  0  0  0  0
 35 36  1  0  0  0  0
M  END
> <RowID>
1651

> <Original_SMILES>
CC1=CC(CSCCCCCCCCCCCC)=CC(CSCCCCCCCCCCCC)=C1O

> <Canonical_QSARr>
CC1=CC(CSCCCCCCCCCCCC)=CC(CSCCCCCCCCCCCC)=C1O

> <InChI_Code_QSARr>
InChI=1S/C33H60OS2/c1-4-6-8-10-12-14-16-18-20-22-24-35-28-31-26-30(3)33(34)32(27-31)29-36-25-23-21-19-17-15-13-11-9-7-5-2/h26-27,34H,4-25,28-29H2,1-3H3

> <InChI Key_QSARr>
VTFXHGBOGGGYDO-UHFFFAOYSA-N

> <Salt_Solvent>


> <Salt_Solvent_ID>
0

> <Number of connected components>
1

$$$$
Molecule_1652
  Mrv2316 01072400032D          

 13 12  0  0  0  0            999 V2000
   -0.1914    0.7145    0.0000 C   0  0  0  0  0  0  0  0  0  0  0  0
    0.5230    1.1270    0.0000 C   0  0  0  0  0  0  0  0  0  0  0  0
    1.2375    0.7145    0.0000 C   0  0  0  0  0  0  0  0  0  0  0  0
    1.9520    1.1270    0.0000 N   0  0  0  0  0  0  0  0  0  0  0  0
    2.6664    0.7145    0.0000 C   0  0  0  0  0  0  0  0  0  0  0  0
    3.3809    1.1270    0.0000 C   0  0  0  0  0  0  0  0  0  0  0  0
    4.0954    0.7145    0.0000 C   0  0  0  0  0  0  0  0  0  0  0  0
    4.8099    1.1270    0.0000 N   0  3  0  0  0  0  0  0  0  0  0  0
    5.5243    1.5395    0.0000 C   0  0  0  0  0  0  0  0  0  0  0  0
    5.2224    0.4125    0.0000 C   0  0  0  0  0  0  0  0  0  0  0  0
    4.3974    1.8415    0.0000 C   0  0  0  0  0  0  0  0  0  0  0  0
    1.2375   -0.1105    0.0000 O   0  0  0  0  0  0  0  0  0  0  0  0
    0.5230    1.9520    0.0000 C   0  0  0  0  0  0  0  0  0  0  0  0
  1  2  1  0  0  0  0
  2  3  1  0  0  0  0
  3  4  1  0  0  0  0
  4  5  1  0  0  0  0
  5  6  1  0  0  0  0
  6  7  1  0  0  0  0
  7  8  1  0  0  0  0
  8  9  1  0  0  0  0
  8 10  1  0  0  0  0
  8 11  1  0  0  0  0
  3 12  2  0  0  0  0
  2 13  2  0  0  0  0
M  CHG  1   8   1
M  END
> <RowID>
1652

> <Original_SMILES>
[Cl-].CC(=C)C(=O)NCCC[N+](C)(C)C

> <Canonical_QSARr>
CC(=C)C(=O)NCCC[N+](C)(C)C

> <InChI_Code_QSARr>
InChI=1S/C10H20N2O/c1-9(2)10(13)11-7-6-8-12(3,4)5/h1,6-8H2,2-5H3/p+1

> <InChI Key_QSARr>
VZTGWJFIMGVKSN-UHFFFAOYSA-O

> <Salt_Solvent>
[Cl-]

> <Salt_Solvent_ID>
170

> <Number of connected components>
2

$$$$
Molecule_1653
  Mrv2316 01072400032D          

 15 16  0  0  0  0            999 V2000
   -0.7145   -0.4125    0.0000 C   0  0  0  0  0  0  0  0  0  0  0  0
    0.0000   -0.0000    0.0000 C   0  0  0  0  0  0  0  0  0  0  0  0
    0.0000    0.8250    0.0000 O   0  0  0  0  0  0  0  0  0  0  0  0
    0.7145   -0.4125    0.0000 C   0  0  0  0  0  0  0  0  0  0  0  0
    1.4289    0.0000    0.0000 C   0  0  0  0  0  0  0  0  0  0  0  0
    2.1434   -0.4125    0.0000 C   0  0  0  0  0  0  0  0  0  0  0  0
    2.8579    0.0000    0.0000 C   0  0  0  0  0  0  0  0  0  0  0  0
    3.5724   -0.4125    0.0000 C   0  0  0  0  0  0  0  0  0  0  0  0
    3.5724   -1.2375    0.0000 C   0  0  0  0  0  0  0  0  0  0  0  0
    2.8579   -1.6500    0.0000 C   0  0  0  0  0  0  0  0  0  0  0  0
    2.1434   -1.2375    0.0000 C   0  0  0  0  0  0  0  0  0  0  0  0
    1.4289   -1.6500    0.0000 C   0  0  0  0  0  0  0  0  0  0  0  0
    0.7145   -1.2375    0.0000 C   0  0  0  0  0  0  0  0  0  0  0  0
    4.2868   -1.6500    0.0000 O   0  0  0  0  0  0  0  0  0  0  0  0
    5.0013   -1.2375    0.0000 C   0  0  0  0  0  0  0  0  0  0  0  0
  1  2  1  0  0  0  0
  2  3  2  0  0  0  0
  2  4  1  0  0  0  0
  5  4  2  0  0  0  0
  6  5  1  0  0  0  0
  6  7  1  0  0  0  0
  7  8  2  0  0  0  0
  8  9  1  0  0  0  0
  9 10  2  0  0  0  0
 10 11  1  0  0  0  0
 11  6  2  0  0  0  0
 12 11  1  0  0  0  0
 13 12  2  0  0  0  0
  4 13  1  0  0  0  0
  9 14  1  0  0  0  0
 14 15  1  0  0  0  0
M  END
> <RowID>
1653

> <Original_SMILES>
CC(=O)C1=CC2C=CC(=CC=2C=C1)OC

> <Canonical_QSARr>
CC(=O)C1=CC2C=CC(=CC=2C=C1)OC

> <InChI_Code_QSARr>
InChI=1S/C13H12O2/c1-9(14)10-3-4-12-8-13(15-2)6-5-11(12)7-10/h3-8H,1-2H3

> <InChI Key_QSARr>
GGWCZBGAIGGTDA-UHFFFAOYSA-N

> <Salt_Solvent>


> <Salt_Solvent_ID>
0

> <Number of connected components>
1

$$$$
Molecule_1654
  Mrv2316 01072400032D          

  9  9  0  0  0  0            999 V2000
    0.8763   -0.7968    0.0000 O   0  0  0  0  0  0  0  0  0  0  0  0
    1.2119   -0.0431    0.0000 C   0  0  0  0  0  0  0  0  0  0  0  0
    2.0324    0.0431    0.0000 O   0  0  0  0  0  0  0  0  0  0  0  0
    0.7270    0.6243    0.0000 C   0  0  0  0  0  0  0  0  0  0  0  0
    0.9819    1.4090    0.0000 N   0  0  0  0  0  0  0  0  0  0  0  0
    0.3145    1.8939    0.0000 C   0  0  0  0  0  0  0  0  0  0  0  0
    0.3145    2.7189    0.0000 O   0  0  0  0  0  0  0  0  0  0  0  0
   -0.3530    1.4090    0.0000 C   0  0  0  0  0  0  0  0  0  0  0  0
   -0.0980    0.6243    0.0000 C   0  0  0  0  0  0  0  0  0  0  0  0
  1  2  1  0  0  0  0
  2  3  2  0  0  0  0
  2  4  1  0  0  0  0
  5  4  1  0  0  0  0
  6  5  1  0  0  0  0
  6  7  2  0  0  0  0
  8  6  1  0  0  0  0
  9  8  1  0  0  0  0
  4  9  1  0  0  0  0
M  END
> <RowID>
1654

> <Original_SMILES>
[Na+].[O-]C(=O)C1CCC(=O)N1

> <Canonical_QSARr>
OC(=O)C1CCC(=O)N1

> <InChI_Code_QSARr>
InChI=1S/C5H7NO3/c7-4-2-1-3(6-4)5(8)9/h3H,1-2H2,(H,6,7)(H,8,9)

> <InChI Key_QSARr>
ODHCTXKNWHHXJC-UHFFFAOYSA-N

> <Salt_Solvent>
[Na+]

> <Salt_Solvent_ID>
110

> <Number of connected components>
2

$$$$
Molecule_1655
  Mrv2316 01072400032D          

 25 27  0  0  0  0            999 V2000
   -0.2797   -0.3060    0.0000 C   0  0  0  0  0  0  0  0  0  0  0  0
   -0.9942    0.1065    0.0000 C   0  0  0  0  0  0  0  0  0  0  0  0
   -0.9942    0.9315    0.0000 C   0  0  0  0  0  0  0  0  0  0  0  0
   -1.7087    1.3440    0.0000 C   0  0  0  0  0  0  0  0  0  0  0  0
   -1.7087    2.1690    0.0000 C   0  0  0  0  0  0  0  0  0  0  0  0
   -2.4231    0.9315    0.0000 C   0  0  0  0  0  0  0  0  0  0  0  0
   -2.4231    0.1065    0.0000 C   0  0  0  0  0  0  0  0  0  0  0  0
   -3.1376   -0.3060    0.0000 C   0  0  0  0  0  0  0  0  0  0  0  0
   -1.7087   -0.3060    0.0000 C   0  0  0  0  0  0  0  0  0  0  0  0
   -1.7087   -1.1310    0.0000 C   0  0  0  0  0  0  0  0  0  0  0  0
   -0.9942   -1.5435    0.0000 O   0  0  0  0  0  0  0  0  0  0  0  0
   -2.4231   -1.5435    0.0000 P   0  0  0  0  0  0  0  0  0  0  0  0
   -2.8356   -0.8291    0.0000 O   0  0  0  0  0  0  0  0  0  0  0  0
   -3.1376   -1.9560    0.0000 C   0  0  0  0  0  0  0  0  0  0  0  0
   -3.8521   -1.5435    0.0000 C   0  0  0  0  0  0  0  0  0  0  0  0
   -4.5666   -1.9560    0.0000 C   0  0  0  0  0  0  0  0  0  0  0  0
   -4.5666   -2.7810    0.0000 C   0  0  0  0  0  0  0  0  0  0  0  0
   -3.8521   -3.1935    0.0000 C   0  0  0  0  0  0  0  0  0  0  0  0
   -3.1376   -2.7810    0.0000 C   0  0  0  0  0  0  0  0  0  0  0  0
   -2.0106   -2.2580    0.0000 C   0  0  0  0  0  0  0  0  0  0  0  0
   -2.4231   -2.9725    0.0000 C   0  0  0  0  0  0  0  0  0  0  0  0
   -2.0106   -3.6870    0.0000 C   0  0  0  0  0  0  0  0  0  0  0  0
   -1.1856   -3.6870    0.0000 C   0  0  0  0  0  0  0  0  0  0  0  0
   -0.7731   -2.9725    0.0000 C   0  0  0  0  0  0  0  0  0  0  0  0
   -1.1856   -2.2580    0.0000 C   0  0  0  0  0  0  0  0  0  0  0  0
  1  2  1  0  0  0  0
  3  2  1  0  0  0  0
  4  3  2  0  0  0  0
  4  5  1  0  0  0  0
  6  4  1  0  0  0  0
  7  6  2  0  0  0  0
  7  8  1  0  0  0  0
  9  7  1  0  0  0  0
  2  9  2  0  0  0  0
  9 10  1  0  0  0  0
 10 11  2  0  0  0  0
 10 12  1  0  0  0  0
 12 13  2  0  0  0  0
 12 14  1  0  0  0  0
 15 14  1  0  0  0  0
 16 15  2  0  0  0  0
 17 16  1  0  0  0  0
 18 17  2  0  0  0  0
 19 18  1  0  0  0  0
 14 19  2  0  0  0  0
 12 20  1  0  0  0  0
 21 20  1  0  0  0  0
 22 21  2  0  0  0  0
 23 22  1  0  0  0  0
 24 23  2  0  0  0  0
 25 24  1  0  0  0  0
 20 25  2  0  0  0  0
M  END
> <RowID>
1655

> <Original_SMILES>
CC1C=C(C)C=C(C)C=1C(=O)P(=O)(C1C=CC=CC=1)C1C=CC=CC=1

> <Canonical_QSARr>
CC1C=C(C)C=C(C)C=1C(=O)P(=O)(C1C=CC=CC=1)C1C=CC=CC=1

> <InChI_Code_QSARr>
InChI=1S/C22H21O2P/c1-16-14-17(2)21(18(3)15-16)22(23)25(24,19-10-6-4-7-11-19)20-12-8-5-9-13-20/h4-15H,1-3H3

> <InChI Key_QSARr>
VFHVQBAGLAREND-UHFFFAOYSA-N

> <Salt_Solvent>


> <Salt_Solvent_ID>
0

> <Number of connected components>
1

$$$$
Molecule_1656
  Mrv2316 01072400032D          

 14 14  0  0  0  0            999 V2000
   -0.3062   -2.8875    0.0000 C   0  0  0  0  0  0  0  0  0  0  0  0
    0.4083   -2.4750    0.0000 C   0  0  0  0  0  0  0  0  0  0  0  0
    0.4083   -1.6500    0.0000 O   0  0  0  0  0  0  0  0  0  0  0  0
    1.1227   -1.2375    0.0000 C   0  0  0  0  0  0  0  0  0  0  0  0
    1.1227   -0.4125    0.0000 C   0  0  0  0  0  0  0  0  0  0  0  0
    1.8372    0.0000    0.0000 C   0  0  0  0  0  0  0  0  0  0  0  0
    1.8372    0.8250    0.0000 C   0  0  0  0  0  0  0  0  0  0  0  0
    1.1227    1.2375    0.0000 C   0  0  0  0  0  0  0  0  0  0  0  0
    1.1227    2.0625    0.0000 C   0  0  0  0  0  0  0  0  0  0  0  0
    0.4083    2.4750    0.0000 O   0  0  0  0  0  0  0  0  0  0  0  0
    0.4083    3.3000    0.0000 C   0  0  0  0  0  0  0  0  0  0  0  0
   -0.3062    3.7125    0.0000 C   0  0  0  0  0  0  0  0  0  0  0  0
    0.4083    0.8250    0.0000 C   0  0  0  0  0  0  0  0  0  0  0  0
    0.4083    0.0000    0.0000 C   0  0  0  0  0  0  0  0  0  0  0  0
  1  2  2  0  0  0  0
  2  3  1  0  0  0  0
  3  4  1  0  0  0  0
  4  5  1  0  0  0  0
  6  5  1  0  0  0  0
  7  6  1  0  0  0  0
  8  7  1  0  0  0  0
  8  9  1  0  0  0  0
  9 10  1  0  0  0  0
 10 11  1  0  0  0  0
 11 12  2  0  0  0  0
 13  8  1  0  0  0  0
 14 13  1  0  0  0  0
  5 14  1  0  0  0  0
M  END
> <RowID>
1656

> <Original_SMILES>
C=COCC1CCC(COC=C)CC1

> <Canonical_QSARr>
C=COCC1CCC(COC=C)CC1

> <InChI_Code_QSARr>
InChI=1S/C12H20O2/c1-3-13-9-11-5-7-12(8-6-11)10-14-4-2/h3-4,11-12H,1-2,5-10H2

> <InChI Key_QSARr>
DQNSRQYYCSXZDF-UHFFFAOYSA-N

> <Salt_Solvent>


> <Salt_Solvent_ID>
0

> <Number of connected components>
1

$$$$
Molecule_1657
  Mrv2316 01072400032D          

  8  8  0  0  0  0            999 V2000
    0.7145   -1.2375    0.0000 F   0  0  0  0  0  0  0  0  0  0  0  0
    0.7145   -0.4125    0.0000 C   0  0  0  0  0  0  0  0  0  0  0  0
    1.4289    0.0000    0.0000 C   0  0  0  0  0  0  0  0  0  0  0  0
    1.4289    0.8250    0.0000 C   0  0  0  0  0  0  0  0  0  0  0  0
    0.7145    1.2375    0.0000 C   0  0  0  0  0  0  0  0  0  0  0  0
    0.7145    2.0625    0.0000 Br  0  0  0  0  0  0  0  0  0  0  0  0
    0.0000    0.8250    0.0000 C   0  0  0  0  0  0  0  0  0  0  0  0
    0.0000    0.0000    0.0000 C   0  0  0  0  0  0  0  0  0  0  0  0
  1  2  1  0  0  0  0
  3  2  2  0  0  0  0
  4  3  1  0  0  0  0
  5  4  2  0  0  0  0
  5  6  1  0  0  0  0
  7  5  1  0  0  0  0
  8  7  2  0  0  0  0
  2  8  1  0  0  0  0
M  END
> <RowID>
1657

> <Original_SMILES>
FC1=CC=C(Br)C=C1

> <Canonical_QSARr>
FC1=CC=C(Br)C=C1

> <InChI_Code_QSARr>
InChI=1S/C6H4BrF/c7-5-1-3-6(8)4-2-5/h1-4H

> <InChI Key_QSARr>
AITNMTXHTIIIBB-UHFFFAOYSA-N

> <Salt_Solvent>


> <Salt_Solvent_ID>
0

> <Number of connected components>
1

$$$$
Molecule_1659
  Mrv2316 01072400032D          

 14 14  0  0  0  0            999 V2000
    1.1227   -0.7661    0.0000 C   0  0  0  0  0  0  0  0  0  0  0  0
    1.8372   -0.3536    0.0000 C   0  0  0  0  0  0  0  0  0  0  0  0
    2.5517   -0.7661    0.0000 C   0  0  0  0  0  0  0  0  0  0  0  0
    3.2662   -0.3536    0.0000 C   0  0  0  0  0  0  0  0  0  0  0  0
    3.2662    0.4714    0.0000 C   0  0  0  0  0  0  0  0  0  0  0  0
    2.5517    0.8839    0.0000 C   0  0  0  0  0  0  0  0  0  0  0  0
    3.0820    1.5159    0.0000 C   0  0  0  0  0  0  0  0  0  0  0  0
    2.0214    1.5159    0.0000 C   0  0  0  0  0  0  0  0  0  0  0  0
    1.8372    0.4714    0.0000 C   0  0  0  0  0  0  0  0  0  0  0  0
    1.1227    0.8839    0.0000 C   0  0  0  0  0  0  0  0  0  0  0  0
    1.1227    1.7089    0.0000 C   0  0  0  0  0  0  0  0  0  0  0  0
    0.4083    2.1214    0.0000 C   0  0  0  0  0  0  0  0  0  0  0  0
   -0.3062    1.7089    0.0000 C   0  0  0  0  0  0  0  0  0  0  0  0
    0.4083    2.9464    0.0000 O   0  0  0  0  0  0  0  0  0  0  0  0
  1  2  1  0  0  0  0
  3  2  1  0  0  0  0
  4  3  1  0  0  0  0
  5  4  1  0  0  0  0
  6  5  1  0  0  0  0
  6  7  1  0  0  0  0
  6  8  1  0  0  0  0
  9  6  1  0  0  0  0
  2  9  2  0  0  0  0
 10  9  1  4  0  0  0
 10 11  2  0  0  0  0
 11 12  1  0  0  0  0
 12 13  1  0  0  0  0
 12 14  2  0  0  0  0
M  END
> <RowID>
1659

> <Original_SMILES>
CC1CCCC(C)(C)C=1C=CC(C)=O

> <Canonical_QSARr>
CC1CCCC(C)(C)C=1C=CC(C)=O

> <InChI_Code_QSARr>
InChI=1S/C13H20O/c1-10-6-5-9-13(3,4)12(10)8-7-11(2)14/h7-8H,5-6,9H2,1-4H3

> <InChI Key_QSARr>
PSQYTAPXSHCGMF-UHFFFAOYSA-N

> <Salt_Solvent>


> <Salt_Solvent_ID>
0

> <Number of connected components>
1

$$$$
Molecule_1661
  Mrv2316 01072400032D          

  7  6  0  0  0  0            999 V2000
    3.9039    1.4289    0.0000 N   0  0  0  0  0  0  0  0  0  0  0  0
    3.1895    1.8414    0.0000 C   0  0  0  0  0  0  0  0  0  0  0  0
    2.4750    1.4289    0.0000 C   0  0  0  0  0  0  0  0  0  0  0  0
    1.7605    1.8414    0.0000 O   0  0  0  0  0  0  0  0  0  0  0  0
    4.6184    1.8414    0.0000 C   0  0  0  0  0  0  0  0  0  0  0  0
    5.3329    1.4289    0.0000 C   0  0  0  0  0  0  0  0  0  0  0  0
    6.0474    1.8414    0.0000 O   0  0  0  0  0  0  0  0  0  0  0  0
  1  2  1  0  0  0  0
  2  3  1  0  0  0  0
  3  4  1  0  0  0  0
  1  5  1  0  0  0  0
  5  6  1  0  0  0  0
  6  7  1  0  0  0  0
M  END
> <RowID>
1661

> <Original_SMILES>
CC([O-])=O.OCC[NH2+]CCO

> <Canonical_QSARr>
OCCNCCO

> <InChI_Code_QSARr>
InChI=1S/C4H11NO2/c6-3-1-5-2-4-7/h5-7H,1-4H2

> <InChI Key_QSARr>
ZBCBWPMODOFKDW-UHFFFAOYSA-N

> <Salt_Solvent>
CC(=O)[O-]

> <Salt_Solvent_ID>
1768

> <Number of connected components>
2

$$$$
Molecule_1662
  Mrv2316 01072400032D          

 14 14  0  0  0  0            999 V2000
   -0.0640    3.2767    0.0000 N   0  0  0  0  0  0  0  0  0  0  0  0
    0.4663    2.6447    0.0000 C   0  0  0  0  0  0  0  0  0  0  0  0
    1.2788    2.7880    0.0000 O   0  0  0  0  0  0  0  0  0  0  0  0
    0.1842    1.8695    0.0000 C   0  0  0  0  0  0  0  0  0  0  0  0
    0.7145    1.2375    0.0000 C   0  0  0  0  0  0  0  0  0  0  0  0
    1.2448    1.8695    0.0000 C   0  0  0  0  0  0  0  0  0  0  0  0
    2.0572    1.7262    0.0000 C   0  0  0  0  0  0  0  0  0  0  0  0
    2.5875    2.3582    0.0000 O   0  0  0  0  0  0  0  0  0  0  0  0
    2.3394    0.9510    0.0000 O   0  0  0  0  0  0  0  0  0  0  0  0
   -0.0000    0.8250    0.0000 C   0  0  0  0  0  0  0  0  0  0  0  0
   -0.0000   -0.0000    0.0000 C   0  0  0  0  0  0  0  0  0  0  0  0
    0.7145   -0.4125    0.0000 C   0  0  0  0  0  0  0  0  0  0  0  0
    1.4289   -0.0000    0.0000 C   0  0  0  0  0  0  0  0  0  0  0  0
    1.4289    0.8250    0.0000 C   0  0  0  0  0  0  0  0  0  0  0  0
  1  2  1  0  0  0  0
  2  3  2  0  0  0  0
  2  4  1  0  0  0  0
  4  5  1  0  0  0  0
  5  6  1  0  0  0  0
  6  7  1  0  0  0  0
  7  8  1  0  0  0  0
  7  9  2  0  0  0  0
 10  5  1  0  0  0  0
 11 10  1  0  0  0  0
 12 11  1  0  0  0  0
 13 12  1  0  0  0  0
 14 13  1  0  0  0  0
  5 14  1  0  0  0  0
M  END
> <RowID>
1662

> <Original_SMILES>
NC(=O)CC1(CC(O)=O)CCCCC1

> <Canonical_QSARr>
NC(=O)CC1(CC(O)=O)CCCCC1

> <InChI_Code_QSARr>
InChI=1S/C10H17NO3/c11-8(12)6-10(7-9(13)14)4-2-1-3-5-10/h1-7H2,(H2,11,12)(H,13,14)

> <InChI Key_QSARr>
QJGSJXLCJRXTRY-UHFFFAOYSA-N

> <Salt_Solvent>


> <Salt_Solvent_ID>
0

> <Number of connected components>
1

$$$$
Molecule_1663
  Mrv2316 01072400032D          

 10 12  0  0  0  0            999 V2000
   -0.8259    1.0799    0.0000 C   0  0  0  0  0  0  0  0  0  0  0  0
   -1.3108    0.4125    0.0000 C   0  0  0  0  0  0  0  0  0  0  0  0
   -0.8259   -0.2549    0.0000 C   0  0  0  0  0  0  0  0  0  0  0  0
   -0.0412   -0.0000    0.0000 C   0  0  0  0  0  0  0  0  0  0  0  0
    0.6732   -0.4125    0.0000 C   0  0  0  0  0  0  0  0  0  0  0  0
    0.8795    0.4125    0.0000 C   0  0  0  0  0  0  0  0  0  0  0  0
    0.6732    1.2375    0.0000 C   0  0  0  0  0  0  0  0  0  0  0  0
   -0.0412    0.8250    0.0000 C   0  0  0  0  0  0  0  0  0  0  0  0
    1.3877    0.8250    0.0000 C   0  0  0  0  0  0  0  0  0  0  0  0
    1.3877    0.0000    0.0000 C   0  0  0  0  0  0  0  0  0  0  0  0
  2  1  1  0  0  0  0
  3  2  2  0  0  0  0
  4  3  1  0  0  0  0
  4  5  1  0  0  0  0
  6  5  1  0  0  0  0
  7  6  1  0  0  0  0
  7  8  1  0  0  0  0
  1  8  1  0  0  0  0
  8  4  1  0  0  0  0
  9  7  1  0  0  0  0
 10  9  2  0  0  0  0
  5 10  1  0  0  0  0
M  END
> <RowID>
1663

> <Original_SMILES>
C1C=CC2C3CC(C=C3)C21

> <Canonical_QSARr>
C1C=CC2C3CC(C=C3)C21

> <InChI_Code_QSARr>
InChI=1S/C10H12/c1-2-9-7-4-5-8(6-7)10(9)3-1/h1-2,4-5,7-10H,3,6H2

> <InChI Key_QSARr>
HECLRDQVFMWTQS-UHFFFAOYSA-N

> <Salt_Solvent>


> <Salt_Solvent_ID>
0

> <Number of connected components>
1

$$$$
Molecule_1664
  Mrv2316 01072400032D          

 63 62  0  0  0  0            999 V2000
   13.0872   -4.8185    0.0000 C   0  0  0  0  0  0  0  0  0  0  0  0
   13.0872   -3.9935    0.0000 C   0  0  0  0  0  0  0  0  0  0  0  0
   13.8017   -3.5810    0.0000 C   0  0  0  0  0  0  0  0  0  0  0  0
   13.8017   -2.7560    0.0000 C   0  0  0  0  0  0  0  0  0  0  0  0
   14.5162   -2.3435    0.0000 C   0  0  0  0  0  0  0  0  0  0  0  0
   14.5162   -1.5185    0.0000 C   0  0  0  0  0  0  0  0  0  0  0  0
   15.2306   -1.1060    0.0000 C   0  0  0  0  0  0  0  0  0  0  0  0
   15.2306   -0.2810    0.0000 C   0  0  0  0  0  0  0  0  0  0  0  0
   15.9451    0.1315    0.0000 C   0  0  0  0  0  0  0  0  0  0  0  0
   15.9451    0.9565    0.0000 C   0  0  0  0  0  0  0  0  0  0  0  0
   16.6596    1.3690    0.0000 C   0  0  0  0  0  0  0  0  0  0  0  0
   16.6596    2.1940    0.0000 C   0  0  0  0  0  0  0  0  0  0  0  0
   17.3741    2.6065    0.0000 C   0  0  0  0  0  0  0  0  0  0  0  0
   17.3741    3.4315    0.0000 C   0  0  0  0  0  0  0  0  0  0  0  0
   18.0885    3.8440    0.0000 C   0  0  0  0  0  0  0  0  0  0  0  0
   18.0885    4.6690    0.0000 C   0  0  0  0  0  0  0  0  0  0  0  0
   18.8030    5.0815    0.0000 C   0  0  0  0  0  0  0  0  0  0  0  0
   18.8030    5.9065    0.0000 C   0  0  0  0  0  0  0  0  0  0  0  0
   18.0885    6.3190    0.0000 O   0  0  0  0  0  0  0  0  0  0  0  0
   19.5175    6.3190    0.0000 O   0  0  0  0  0  0  0  0  0  0  0  0
   19.5175    7.1440    0.0000 C   0  0  0  0  0  0  0  0  0  0  0  0
   18.8030    7.5565    0.0000 C   0  0  0  0  0  0  0  0  0  0  0  0
   18.0885    7.1440    0.0000 O   0  0  0  0  0  0  0  0  0  0  0  0
   17.3741    7.5565    0.0000 C   0  0  0  0  0  0  0  0  0  0  0  0
   17.3741    8.3815    0.0000 O   0  0  0  0  0  0  0  0  0  0  0  0
   16.6596    7.1440    0.0000 C   0  0  0  0  0  0  0  0  0  0  0  0
   15.9451    7.5565    0.0000 C   0  0  0  0  0  0  0  0  0  0  0  0
   15.2306    7.1440    0.0000 C   0  0  0  0  0  0  0  0  0  0  0  0
   14.5162    7.5565    0.0000 C   0  0  0  0  0  0  0  0  0  0  0  0
   13.8017    7.1440    0.0000 C   0  0  0  0  0  0  0  0  0  0  0  0
   13.0872    7.5565    0.0000 C   0  0  0  0  0  0  0  0  0  0  0  0
   12.3728    7.1440    0.0000 C   0  0  0  0  0  0  0  0  0  0  0  0
   11.6583    7.5565    0.0000 C   0  0  0  0  0  0  0  0  0  0  0  0
   11.6583    8.3815    0.0000 C   0  0  0  0  0  0  0  0  0  0  0  0
   10.9438    8.7940    0.0000 C   0  0  0  0  0  0  0  0  0  0  0  0
   10.9438    9.6190    0.0000 C   0  0  0  0  0  0  0  0  0  0  0  0
   10.2294   10.0315    0.0000 C   0  0  0  0  0  0  0  0  0  0  0  0
   10.2294   10.8565    0.0000 C   0  0  0  0  0  0  0  0  0  0  0  0
    9.5149   11.2690    0.0000 C   0  0  0  0  0  0  0  0  0  0  0  0
    9.5149   12.0940    0.0000 C   0  0  0  0  0  0  0  0  0  0  0  0
    8.8004   12.5065    0.0000 C   0  0  0  0  0  0  0  0  0  0  0  0
    8.0859   12.0940    0.0000 C   0  0  0  0  0  0  0  0  0  0  0  0
   20.2319    7.5565    0.0000 C   0  0  0  0  0  0  0  0  0  0  0  0
   20.9464    7.1440    0.0000 O   0  0  0  0  0  0  0  0  0  0  0  0
   21.6609    7.5565    0.0000 C   0  0  0  0  0  0  0  0  0  0  0  0
   21.6609    8.3815    0.0000 O   0  0  0  0  0  0  0  0  0  0  0  0
   22.3754    7.1440    0.0000 C   0  0  0  0  0  0  0  0  0  0  0  0
   23.0898    7.5565    0.0000 C   0  0  0  0  0  0  0  0  0  0  0  0
   23.8043    7.1440    0.0000 C   0  0  0  0  0  0  0  0  0  0  0  0
   24.5188    7.5565    0.0000 C   0  0  0  0  0  0  0  0  0  0  0  0
   25.2332    7.1440    0.0000 C   0  0  0  0  0  0  0  0  0  0  0  0
   25.9477    7.5565    0.0000 C   0  0  0  0  0  0  0  0  0  0  0  0
   26.6622    7.1440    0.0000 C   0  0  0  0  0  0  0  0  0  0  0  0
   27.3767    7.5565    0.0000 C   0  0  0  0  0  0  0  0  0  0  0  0
   28.0911    7.1440    0.0000 C   0  0  0  0  0  0  0  0  0  0  0  0
   28.8056    7.5565    0.0000 C   0  0  0  0  0  0  0  0  0  0  0  0
   29.5201    7.1440    0.0000 C   0  0  0  0  0  0  0  0  0  0  0  0
   29.5201    6.3190    0.0000 C   0  0  0  0  0  0  0  0  0  0  0  0
   30.2345    5.9065    0.0000 C   0  0  0  0  0  0  0  0  0  0  0  0
   30.2345    5.0815    0.0000 C   0  0  0  0  0  0  0  0  0  0  0  0
   30.9490    4.6690    0.0000 C   0  0  0  0  0  0  0  0  0  0  0  0
   30.9490    3.8440    0.0000 C   0  0  0  0  0  0  0  0  0  0  0  0
   31.6635    3.4315    0.0000 C   0  0  0  0  0  0  0  0  0  0  0  0
  1  2  1  0  0  0  0
  2  3  1  0  0  0  0
  3  4  1  0  0  0  0
  4  5  1  0  0  0  0
  5  6  1  0  0  0  0
  6  7  1  0  0  0  0
  7  8  1  0  0  0  0
  9  8  1  4  0  0  0
  9 10  2  0  0  0  0
 10 11  1  0  0  0  0
 11 12  1  0  0  0  0
 12 13  1  0  0  0  0
 13 14  1  0  0  0  0
 14 15  1  0  0  0  0
 15 16  1  0  0  0  0
 16 17  1  0  0  0  0
 17 18  1  0  0  0  0
 18 19  2  0  0  0  0
 18 20  1  0  0  0  0
 20 21  1  0  0  0  0
 21 22  1  0  0  0  0
 22 23  1  0  0  0  0
 23 24  1  0  0  0  0
 24 25  2  0  0  0  0
 24 26  1  0  0  0  0
 26 27  1  0  0  0  0
 27 28  1  0  0  0  0
 28 29  1  0  0  0  0
 29 30  1  0  0  0  0
 30 31  1  0  0  0  0
 31 32  1  0  0  0  0
 33 32  1  4  0  0  0
 33 34  2  0  0  0  0
 34 35  1  0  0  0  0
 35 36  1  0  0  0  0
 36 37  1  0  0  0  0
 37 38  1  0  0  0  0
 38 39  1  0  0  0  0
 39 40  1  0  0  0  0
 40 41  1  0  0  0  0
 41 42  1  0  0  0  0
 21 43  1  0  0  0  0
 43 44  1  0  0  0  0
 44 45  1  0  0  0  0
 45 46  2  0  0  0  0
 45 47  1  0  0  0  0
 47 48  1  0  0  0  0
 48 49  1  0  0  0  0
 49 50  1  0  0  0  0
 50 51  1  0  0  0  0
 51 52  1  0  0  0  0
 52 53  1  0  0  0  0
 54 53  1  4  0  0  0
 54 55  2  0  0  0  0
 55 56  1  0  0  0  0
 56 57  1  0  0  0  0
 57 58  1  0  0  0  0
 58 59  1  0  0  0  0
 59 60  1  0  0  0  0
 60 61  1  0  0  0  0
 61 62  1  0  0  0  0
 62 63  1  0  0  0  0
M  END
> <RowID>
1664

> <Original_SMILES>
CCCCCCCCC=CCCCCCCCC(=O)OC(COC(=O)CCCCCCCC=CCCCCCCCC)COC(=O)CCCCCCCC=CCCCCCCCC

> <Canonical_QSARr>
CCCCCCCCC=CCCCCCCCC(=O)OC(COC(=O)CCCCCCCC=CCCCCCCCC)COC(=O)CCCCCCCC=CCCCCCCCC

> <InChI_Code_QSARr>
InChI=1S/C57H104O6/c1-4-7-10-13-16-19-22-25-28-31-34-37-40-43-46-49-55(58)61-52-54(63-57(60)51-48-45-42-39-36-33-30-27-24-21-18-15-12-9-6-3)53-62-56(59)50-47-44-41-38-35-32-29-26-23-20-17-14-11-8-5-2/h25-30,54H,4-24,31-53H2,1-3H3

> <InChI Key_QSARr>
PHYFQTYBJUILEZ-UHFFFAOYSA-N

> <Salt_Solvent>


> <Salt_Solvent_ID>
0

> <Number of connected components>
1

$$$$
Molecule_1665
  Mrv2316 01072400032D          

 22 21  0  0  0  0            999 V2000
   -1.0974    1.0164    0.0000 C   0  0  0  0  0  0  0  0  0  0  0  0
   -0.3829    1.4289    0.0000 C   0  0  0  0  0  0  0  0  0  0  0  0
    0.0296    0.7144    0.0000 C   0  0  0  0  0  0  0  0  0  0  0  0
   -0.7954    2.1434    0.0000 C   0  0  0  0  0  0  0  0  0  0  0  0
    0.3316    1.8414    0.0000 C   0  0  0  0  0  0  0  0  0  0  0  0
    1.0461    1.4289    0.0000 C   0  0  0  0  0  0  0  0  0  0  0  0
    1.0461    0.6039    0.0000 C   0  0  0  0  0  0  0  0  0  0  0  0
    1.7605    1.8414    0.0000 C   0  0  0  0  0  0  0  0  0  0  0  0
    2.4750    1.4289    0.0000 C   0  0  0  0  0  0  0  0  0  0  0  0
    2.4750    0.6039    0.0000 O   0  0  0  0  0  0  0  0  0  0  0  0
    3.1895    1.8414    0.0000 O   0  0  0  0  0  0  0  0  0  0  0  0
    3.9039    1.4289    0.0000 O   0  0  0  0  0  0  0  0  0  0  0  0
    4.6184    1.8414    0.0000 C   0  0  0  0  0  0  0  0  0  0  0  0
    4.6184    2.6664    0.0000 O   0  0  0  0  0  0  0  0  0  0  0  0
    5.3329    1.4289    0.0000 C   0  0  0  0  0  0  0  0  0  0  0  0
    6.0474    1.8414    0.0000 C   0  0  0  0  0  0  0  0  0  0  0  0
    6.0474    2.6664    0.0000 C   0  0  0  0  0  0  0  0  0  0  0  0
    6.7618    1.4289    0.0000 C   0  0  0  0  0  0  0  0  0  0  0  0
    7.4763    1.8414    0.0000 C   0  0  0  0  0  0  0  0  0  0  0  0
    8.1908    2.2539    0.0000 C   0  0  0  0  0  0  0  0  0  0  0  0
    7.8888    1.1269    0.0000 C   0  0  0  0  0  0  0  0  0  0  0  0
    7.0638    2.5559    0.0000 C   0  0  0  0  0  0  0  0  0  0  0  0
  1  2  1  0  0  0  0
  2  3  1  0  0  0  0
  2  4  1  0  0  0  0
  2  5  1  0  0  0  0
  5  6  1  0  0  0  0
  6  7  1  0  0  0  0
  6  8  1  0  0  0  0
  8  9  1  0  0  0  0
  9 10  2  0  0  0  0
  9 11  1  0  0  0  0
 11 12  1  0  0  0  0
 12 13  1  0  0  0  0
 13 14  2  0  0  0  0
 13 15  1  0  0  0  0
 15 16  1  0  0  0  0
 16 17  1  0  0  0  0
 16 18  1  0  0  0  0
 18 19  1  0  0  0  0
 19 20  1  0  0  0  0
 19 21  1  0  0  0  0
 19 22  1  0  0  0  0
M  END
> <RowID>
1665

> <Original_SMILES>
CC(C)(C)CC(C)CC(=O)OOC(=O)CC(C)CC(C)(C)C

> <Canonical_QSARr>
CC(C)(C)CC(C)CC(=O)OOC(=O)CC(C)CC(C)(C)C

> <InChI_Code_QSARr>
InChI=1S/C18H34O4/c1-13(11-17(3,4)5)9-15(19)21-22-16(20)10-14(2)12-18(6,7)8/h13-14H,9-12H2,1-8H3

> <InChI Key_QSARr>
KFGFVPMRLOQXNB-UHFFFAOYSA-N

> <Salt_Solvent>


> <Salt_Solvent_ID>
0

> <Number of connected components>
1

$$$$
Molecule_1666
  Mrv2316 01072400032D          

 13 14  0  0  0  0            999 V2000
   -1.5938   -1.7452    0.0000 O   0  0  0  0  0  0  0  0  0  0  0  0
   -0.8793   -2.1577    0.0000 C   0  0  0  0  0  0  0  0  0  0  0  0
   -0.8793   -2.9827    0.0000 C   0  0  0  0  0  0  0  0  0  0  0  0
   -0.1649   -3.3952    0.0000 C   0  0  0  0  0  0  0  0  0  0  0  0
    0.5496   -2.9827    0.0000 C   0  0  0  0  0  0  0  0  0  0  0  0
    0.5496   -2.1577    0.0000 C   0  0  0  0  0  0  0  0  0  0  0  0
   -0.1649   -1.7452    0.0000 C   0  0  0  0  0  0  0  0  0  0  0  0
   -0.1649   -0.9202    0.0000 C   0  0  0  0  0  0  0  0  0  0  0  0
    0.5496   -0.5077    0.0000 C   0  0  0  0  0  0  0  0  0  0  0  0
    0.5496    0.3173    0.0000 C   0  0  0  0  0  0  0  0  0  0  0  0
   -0.1649    0.7298    0.0000 C   0  0  0  0  0  0  0  0  0  0  0  0
   -0.8793    0.3173    0.0000 C   0  0  0  0  0  0  0  0  0  0  0  0
   -0.8793   -0.5077    0.0000 C   0  0  0  0  0  0  0  0  0  0  0  0
  1  2  1  0  0  0  0
  3  2  1  0  0  0  0
  4  3  2  0  0  0  0
  5  4  1  0  0  0  0
  6  5  2  0  0  0  0
  7  6  1  0  0  0  0
  2  7  2  0  0  0  0
  7  8  1  0  0  0  0
  9  8  1  0  0  0  0
 10  9  2  0  0  0  0
 11 10  1  0  0  0  0
 12 11  2  0  0  0  0
 13 12  1  0  0  0  0
  8 13  2  0  0  0  0
M  END
> <RowID>
1666

> <Original_SMILES>
OC1C=CC=CC=1C1C=CC=CC=1

> <Canonical_QSARr>
OC1C=CC=CC=1C1C=CC=CC=1

> <InChI_Code_QSARr>
InChI=1S/C12H10O/c13-12-9-5-4-8-11(12)10-6-2-1-3-7-10/h1-9,13H

> <InChI Key_QSARr>
LLEMOWNGBBNAJR-UHFFFAOYSA-N

> <Salt_Solvent>


> <Salt_Solvent_ID>
0

> <Number of connected components>
1

$$$$
Molecule_1667
  Mrv2316 01072400032D          

 13 13  0  0  0  0            999 V2000
   -0.7145   -1.0471    0.0000 C   0  0  0  0  0  0  0  0  0  0  0  0
   -0.0000   -0.6346    0.0000 O   0  0  0  0  0  0  0  0  0  0  0  0
   -0.0000    0.1904    0.0000 C   0  0  0  0  0  0  0  0  0  0  0  0
   -0.7145    0.6029    0.0000 O   0  0  0  0  0  0  0  0  0  0  0  0
    0.7145    0.6029    0.0000 C   0  0  0  0  0  0  0  0  0  0  0  0
    1.4289    0.1904    0.0000 N   0  0  0  0  0  0  0  0  0  0  0  0
    0.7145    1.4279    0.0000 C   0  0  0  0  0  0  0  0  0  0  0  0
    1.4289    1.8404    0.0000 C   0  0  0  0  0  0  0  0  0  0  0  0
    1.4289    2.6654    0.0000 C   0  0  0  0  0  0  0  0  0  0  0  0
    0.7145    3.0779    0.0000 C   0  0  0  0  0  0  0  0  0  0  0  0
    0.7145    3.9029    0.0000 O   0  0  0  0  0  0  0  0  0  0  0  0
   -0.0000    2.6654    0.0000 C   0  0  0  0  0  0  0  0  0  0  0  0
   -0.0000    1.8404    0.0000 C   0  0  0  0  0  0  0  0  0  0  0  0
  1  2  1  0  0  0  0
  2  3  1  0  0  0  0
  3  4  2  0  0  0  0
  3  5  1  0  0  0  0
  5  6  1  0  0  0  0
  5  7  1  0  0  0  0
  8  7  1  0  0  0  0
  9  8  2  0  0  0  0
 10  9  1  0  0  0  0
 10 11  1  0  0  0  0
 12 10  2  0  0  0  0
 13 12  1  0  0  0  0
  7 13  2  0  0  0  0
M  END
> <RowID>
1667

> <Original_SMILES>
COC(=O)C(N)C1C=CC(O)=CC=1

> <Canonical_QSARr>
COC(=O)C(N)C1C=CC(O)=CC=1

> <InChI_Code_QSARr>
InChI=1S/C9H11NO3/c1-13-9(12)8(10)6-2-4-7(11)5-3-6/h2-5,8,11H,10H2,1H3

> <InChI Key_QSARr>
SZBDOFWNZVHVGR-UHFFFAOYSA-N

> <Salt_Solvent>


> <Salt_Solvent_ID>
0

> <Number of connected components>
1

$$$$
Molecule_1668
  Mrv2316 01072400032D          

 36 35  0  0  0  0            999 V2000
   14.1355    8.9862    0.0000 C   0  0  0  0  0  0  0  0  0  0  0  0
   14.8500    8.5737    0.0000 C   0  0  0  0  0  0  0  0  0  0  0  0
   15.5645    8.9862    0.0000 C   0  0  0  0  0  0  0  0  0  0  0  0
   16.2789    8.5737    0.0000 C   0  0  0  0  0  0  0  0  0  0  0  0
   16.9934    8.9862    0.0000 C   0  0  0  0  0  0  0  0  0  0  0  0
   17.7079    8.5737    0.0000 C   0  0  0  0  0  0  0  0  0  0  0  0
   18.4224    8.9862    0.0000 C   0  0  0  0  0  0  0  0  0  0  0  0
   19.1368    8.5737    0.0000 C   0  0  0  0  0  0  0  0  0  0  0  0
   19.8513    8.9862    0.0000 C   0  0  0  0  0  0  0  0  0  0  0  0
   20.5658    8.5737    0.0000 C   0  0  0  0  0  0  0  0  0  0  0  0
   21.2802    8.9862    0.0000 C   0  0  0  0  0  0  0  0  0  0  0  0
   21.9947    8.5737    0.0000 C   0  0  0  0  0  0  0  0  0  0  0  0
   22.7092    8.9862    0.0000 C   0  0  0  0  0  0  0  0  0  0  0  0
   23.4237    8.5737    0.0000 C   0  0  0  0  0  0  0  0  0  0  0  0
   23.4237    7.7487    0.0000 O   0  0  0  0  0  0  0  0  0  0  0  0
   24.1381    8.9862    0.0000 O   0  0  0  0  0  0  0  0  0  0  0  0
   24.8526    8.5737    0.0000 C   0  0  0  0  0  0  0  0  0  0  0  0
   25.5671    8.9862    0.0000 C   0  0  0  0  0  0  0  0  0  0  0  0
   26.2815    8.5737    0.0000 C   0  0  0  0  0  0  0  0  0  0  0  0
   26.9960    8.9862    0.0000 C   0  0  0  0  0  0  0  0  0  0  0  0
   27.7105    8.5737    0.0000 C   0  0  0  0  0  0  0  0  0  0  0  0
   28.4249    8.9862    0.0000 C   0  0  0  0  0  0  0  0  0  0  0  0
   29.1394    8.5737    0.0000 C   0  0  0  0  0  0  0  0  0  0  0  0
   29.8539    8.9862    0.0000 C   0  0  0  0  0  0  0  0  0  0  0  0
   30.5684    8.5737    0.0000 C   0  0  0  0  0  0  0  0  0  0  0  0
   31.2828    8.9862    0.0000 C   0  0  0  0  0  0  0  0  0  0  0  0
   31.9973    8.5737    0.0000 C   0  0  0  0  0  0  0  0  0  0  0  0
   32.7118    8.9862    0.0000 C   0  0  0  0  0  0  0  0  0  0  0  0
   25.5671    9.8112    0.0000 C   0  0  0  0  0  0  0  0  0  0  0  0
   26.2815   10.2237    0.0000 C   0  0  0  0  0  0  0  0  0  0  0  0
   26.2815   11.0487    0.0000 C   0  0  0  0  0  0  0  0  0  0  0  0
   26.9960   11.4612    0.0000 C   0  0  0  0  0  0  0  0  0  0  0  0
   26.9960   12.2862    0.0000 C   0  0  0  0  0  0  0  0  0  0  0  0
   27.7105   12.6987    0.0000 C   0  0  0  0  0  0  0  0  0  0  0  0
   27.7105   13.5237    0.0000 C   0  0  0  0  0  0  0  0  0  0  0  0
   28.4249   13.9362    0.0000 C   0  0  0  0  0  0  0  0  0  0  0  0
  1  2  1  0  0  0  0
  2  3  1  0  0  0  0
  3  4  1  0  0  0  0
  4  5  1  0  0  0  0
  5  6  1  0  0  0  0
  6  7  1  0  0  0  0
  7  8  1  0  0  0  0
  8  9  1  0  0  0  0
  9 10  1  0  0  0  0
 10 11  1  0  0  0  0
 11 12  1  0  0  0  0
 12 13  1  0  0  0  0
 13 14  1  0  0  0  0
 14 15  2  0  0  0  0
 14 16  1  0  0  0  0
 16 17  1  0  0  0  0
 17 18  1  0  0  0  0
 18 19  1  0  0  0  0
 19 20  1  0  0  0  0
 20 21  1  0  0  0  0
 21 22  1  0  0  0  0
 22 23  1  0  0  0  0
 23 24  1  0  0  0  0
 24 25  1  0  0  0  0
 25 26  1  0  0  0  0
 26 27  1  0  0  0  0
 27 28  1  0  0  0  0
 18 29  1  0  0  0  0
 29 30  1  0  0  0  0
 30 31  1  0  0  0  0
 31 32  1  0  0  0  0
 32 33  1  0  0  0  0
 33 34  1  0  0  0  0
 34 35  1  0  0  0  0
 35 36  1  0  0  0  0
M  END
> <RowID>
1668

> <Original_SMILES>
CCCCCCCCCCCCCC(=O)OCC(CCCCCCCCCC)CCCCCCCC

> <Canonical_QSARr>
CCCCCCCCCCCCCC(=O)OCC(CCCCCCCCCC)CCCCCCCC

> <InChI_Code_QSARr>
InChI=1S/C34H68O2/c1-4-7-10-13-16-18-19-20-22-25-28-31-34(35)36-32-33(29-26-23-15-12-9-6-3)30-27-24-21-17-14-11-8-5-2/h33H,4-32H2,1-3H3

> <InChI Key_QSARr>
BGRXBNZMPMGLQI-UHFFFAOYSA-N

> <Salt_Solvent>


> <Salt_Solvent_ID>
0

> <Number of connected components>
1

$$$$
Molecule_1669
  Mrv2316 01072400032D          

 17 16  0  0  0  0            999 V2000
    5.9961    4.2868    0.0000 C   0  0  0  0  0  0  0  0  0  0  0  0
    6.7105    4.6993    0.0000 C   0  0  0  0  0  0  0  0  0  0  0  0
    7.4250    4.2868    0.0000 C   0  0  0  0  0  0  0  0  0  0  0  0
    8.1395    4.6993    0.0000 C   0  0  0  0  0  0  0  0  0  0  0  0
    8.8540    4.2868    0.0000 C   0  0  0  0  0  0  0  0  0  0  0  0
    9.5684    4.6993    0.0000 C   0  0  0  0  0  0  0  0  0  0  0  0
   10.2829    4.2868    0.0000 C   0  0  0  0  0  0  0  0  0  0  0  0
   10.9974    4.6993    0.0000 C   0  0  0  0  0  0  0  0  0  0  0  0
   11.7118    4.2868    0.0000 C   0  0  0  0  0  0  0  0  0  0  0  0
   12.4263    4.6993    0.0000 C   0  0  0  0  0  0  0  0  0  0  0  0
   13.1408    4.2868    0.0000 C   0  0  0  0  0  0  0  0  0  0  0  0
   13.8552    4.6993    0.0000 C   0  0  0  0  0  0  0  0  0  0  0  0
   14.5697    4.2868    0.0000 C   0  0  0  0  0  0  0  0  0  0  0  0
   15.2842    4.6993    0.0000 C   0  0  0  0  0  0  0  0  0  0  0  0
   15.2842    5.5243    0.0000 O   0  0  0  0  0  0  0  0  0  0  0  0
   15.9987    4.2868    0.0000 O   0  0  0  0  0  0  0  0  0  0  0  0
   16.7131    4.6993    0.0000 C   0  0  0  0  0  0  0  0  0  0  0  0
  1  2  1  0  0  0  0
  2  3  1  0  0  0  0
  3  4  1  0  0  0  0
  4  5  1  0  0  0  0
  5  6  1  0  0  0  0
  6  7  1  0  0  0  0
  7  8  1  0  0  0  0
  8  9  1  0  0  0  0
  9 10  1  0  0  0  0
 10 11  1  0  0  0  0
 11 12  1  0  0  0  0
 12 13  1  0  0  0  0
 13 14  1  0  0  0  0
 14 15  2  0  0  0  0
 14 16  1  0  0  0  0
 16 17  1  0  0  0  0
M  END
> <RowID>
1669

> <Original_SMILES>
CCCCCCCCCCCCCC(=O)OC

> <Canonical_QSARr>
CCCCCCCCCCCCCC(=O)OC

> <InChI_Code_QSARr>
InChI=1S/C15H30O2/c1-3-4-5-6-7-8-9-10-11-12-13-14-15(16)17-2/h3-14H2,1-2H3

> <InChI Key_QSARr>
ZAZKJZBWRNNLDS-UHFFFAOYSA-N

> <Salt_Solvent>


> <Salt_Solvent_ID>
0

> <Number of connected components>
1

$$$$
Molecule_1671
  Mrv2316 01072400032D          

 22 21  0  0  0  0            999 V2000
    8.4722    5.7162    0.0000 C   0  0  0  0  0  0  0  0  0  0  0  0
    9.1867    6.1287    0.0000 C   0  0  0  0  0  0  0  0  0  0  0  0
    9.9011    5.7162    0.0000 C   0  0  0  0  0  0  0  0  0  0  0  0
   10.6156    6.1287    0.0000 C   0  0  0  0  0  0  0  0  0  0  0  0
   11.3301    5.7162    0.0000 C   0  0  0  0  0  0  0  0  0  0  0  0
   12.0445    6.1287    0.0000 C   0  0  0  0  0  0  0  0  0  0  0  0
   12.7590    5.7162    0.0000 O   0  0  0  0  0  0  0  0  0  0  0  0
   13.4735    6.1287    0.0000 C   0  0  0  0  0  0  0  0  0  0  0  0
   13.4735    6.9537    0.0000 O   0  0  0  0  0  0  0  0  0  0  0  0
   14.1880    5.7162    0.0000 C   0  0  0  0  0  0  0  0  0  0  0  0
   14.9024    6.1287    0.0000 C   0  0  0  0  0  0  0  0  0  0  0  0
   15.6169    5.7162    0.0000 C   0  0  0  0  0  0  0  0  0  0  0  0
   16.3314    6.1287    0.0000 C   0  0  0  0  0  0  0  0  0  0  0  0
   17.0458    5.7162    0.0000 C   0  0  0  0  0  0  0  0  0  0  0  0
   17.0458    4.8912    0.0000 O   0  0  0  0  0  0  0  0  0  0  0  0
   17.7603    6.1287    0.0000 O   0  0  0  0  0  0  0  0  0  0  0  0
   18.4748    5.7162    0.0000 C   0  0  0  0  0  0  0  0  0  0  0  0
   19.1893    6.1287    0.0000 C   0  0  0  0  0  0  0  0  0  0  0  0
   19.9037    5.7162    0.0000 C   0  0  0  0  0  0  0  0  0  0  0  0
   20.6182    6.1287    0.0000 C   0  0  0  0  0  0  0  0  0  0  0  0
   21.3327    5.7162    0.0000 C   0  0  0  0  0  0  0  0  0  0  0  0
   22.0471    6.1287    0.0000 C   0  0  0  0  0  0  0  0  0  0  0  0
  1  2  1  0  0  0  0
  2  3  1  0  0  0  0
  3  4  1  0  0  0  0
  4  5  1  0  0  0  0
  5  6  1  0  0  0  0
  6  7  1  0  0  0  0
  7  8  1  0  0  0  0
  8  9  2  0  0  0  0
  8 10  1  0  0  0  0
 10 11  1  0  0  0  0
 11 12  1  0  0  0  0
 12 13  1  0  0  0  0
 13 14  1  0  0  0  0
 14 15  2  0  0  0  0
 14 16  1  0  0  0  0
 16 17  1  0  0  0  0
 17 18  1  0  0  0  0
 18 19  1  0  0  0  0
 19 20  1  0  0  0  0
 20 21  1  0  0  0  0
 21 22  1  0  0  0  0
M  END
> <RowID>
1671

> <Original_SMILES>
CCCCCCOC(=O)CCCCC(=O)OCCCCCC

> <Canonical_QSARr>
CCCCCCOC(=O)CCCCC(=O)OCCCCCC

> <InChI_Code_QSARr>
InChI=1S/C18H34O4/c1-3-5-7-11-15-21-17(19)13-9-10-14-18(20)22-16-12-8-6-4-2/h3-16H2,1-2H3

> <InChI Key_QSARr>
HHECSPXBQJHZAF-UHFFFAOYSA-N

> <Salt_Solvent>


> <Salt_Solvent_ID>
0

> <Number of connected components>
1

$$$$
Molecule_1673
  Mrv2316 01072400032D          

 15 17  0  0  0  0            999 V2000
   -0.0000   -1.6500    0.0000 O   0  0  0  0  0  0  0  0  0  0  0  0
    0.7145   -1.2375    0.0000 C   0  0  0  0  0  0  0  0  0  0  0  0
    0.7145   -0.4125    0.0000 N   0  0  0  0  0  0  0  0  0  0  0  0
    1.4289    0.0000    0.0000 C   0  0  0  0  0  0  0  0  0  0  0  0
    1.4289    0.8250    0.0000 O   0  0  0  0  0  0  0  0  0  0  0  0
    2.1434   -0.4125    0.0000 C   0  0  0  0  0  0  0  0  0  0  0  0
    2.1434   -1.2375    0.0000 C   0  0  0  0  0  0  0  0  0  0  0  0
    2.8579   -1.6500    0.0000 C   0  0  0  0  0  0  0  0  0  0  0  0
    3.5724   -1.2375    0.0000 C   0  0  0  0  0  0  0  0  0  0  0  0
    3.5724   -0.4125    0.0000 C   0  0  0  0  0  0  0  0  0  0  0  0
    2.8579   -0.0000    0.0000 C   0  0  0  0  0  0  0  0  0  0  0  0
    2.8579   -2.4750    0.0000 C   0  0  0  0  0  0  0  0  0  0  0  0
    2.1434   -2.8875    0.0000 C   0  0  0  0  0  0  0  0  0  0  0  0
    1.4289   -2.4750    0.0000 C   0  0  0  0  0  0  0  0  0  0  0  0
    1.4289   -1.6500    0.0000 C   0  0  0  0  0  0  0  0  0  0  0  0
  1  2  2  0  0  0  0
  3  2  1  0  0  0  0
  4  3  1  0  0  0  0
  4  5  2  0  0  0  0
  6  4  1  0  0  0  0
  6  7  1  0  0  0  0
  7  8  2  0  0  0  0
  8  9  1  0  0  0  0
  9 10  2  0  0  0  0
 10 11  1  0  0  0  0
 11  6  2  0  0  0  0
  8 12  1  0  0  0  0
 12 13  2  0  0  0  0
 13 14  1  0  0  0  0
 14 15  2  0  0  0  0
  2 15  1  0  0  0  0
 15  7  1  0  0  0  0
M  END
> <RowID>
1673

> <Original_SMILES>
O=C1NC(=O)C2=CC=CC3C=CC=C1C=32

> <Canonical_QSARr>
O=C1NC(=O)C2=CC=CC3C=CC=C1C=32

> <InChI_Code_QSARr>
InChI=1S/C12H7NO2/c14-11-8-5-1-3-7-4-2-6-9(10(7)8)12(15)13-11/h1-6H,(H,13,14,15)

> <InChI Key_QSARr>
XJHABGPPCLHLLV-UHFFFAOYSA-N

> <Salt_Solvent>


> <Salt_Solvent_ID>
0

> <Number of connected components>
1

$$$$
Molecule_1675
  Mrv2316 01072400032D          

 15 15  0  0  0  0            999 V2000
    1.4766   -0.9075    0.0000 C   0  0  0  0  0  0  0  0  0  0  0  0
    2.1911   -0.4950    0.0000 C   0  0  0  0  0  0  0  0  0  0  0  0
    2.9055   -0.9075    0.0000 C   0  0  0  0  0  0  0  0  0  0  0  0
    3.6200   -0.4950    0.0000 C   0  0  0  0  0  0  0  0  0  0  0  0
    3.6200    0.3300    0.0000 C   0  0  0  0  0  0  0  0  0  0  0  0
    2.9055    0.7425    0.0000 C   0  0  0  0  0  0  0  0  0  0  0  0
    3.4358    1.3745    0.0000 C   0  0  0  0  0  0  0  0  0  0  0  0
    2.3752    1.3745    0.0000 C   0  0  0  0  0  0  0  0  0  0  0  0
    2.1911    0.3300    0.0000 C   0  0  0  0  0  0  0  0  0  0  0  0
    1.4766    0.7425    0.0000 C   0  0  0  0  0  0  0  0  0  0  0  0
    1.4766    1.5675    0.0000 C   0  0  0  0  0  0  0  0  0  0  0  0
    0.7621    1.9800    0.0000 C   0  0  0  0  0  0  0  0  0  0  0  0
    0.0476    1.5675    0.0000 O   0  0  0  0  0  0  0  0  0  0  0  0
    0.7621    2.8050    0.0000 C   0  0  0  0  0  0  0  0  0  0  0  0
    0.0476    3.2175    0.0000 C   0  0  0  0  0  0  0  0  0  0  0  0
  1  2  1  0  0  0  0
  3  2  1  0  0  0  0
  4  3  1  0  0  0  0
  5  4  1  0  0  0  0
  6  5  1  0  0  0  0
  6  7  1  0  0  0  0
  6  8  1  0  0  0  0
  9  6  1  0  0  0  0
  2  9  2  0  0  0  0
 10  9  1  4  0  0  0
 10 11  2  0  0  0  0
 11 12  1  0  0  0  0
 12 13  2  0  0  0  0
 12 14  1  0  0  0  0
 14 15  1  0  0  0  0
M  END
> <RowID>
1675

> <Original_SMILES>
CC1CCCC(C)(C)C=1C=CC(=O)CC

> <Canonical_QSARr>
CC1CCCC(C)(C)C=1C=CC(=O)CC

> <InChI_Code_QSARr>
InChI=1S/C14H22O/c1-5-12(15)8-9-13-11(2)7-6-10-14(13,3)4/h8-9H,5-7,10H2,1-4H3

> <InChI Key_QSARr>
LMWNGLDCJDIIBR-UHFFFAOYSA-N

> <Salt_Solvent>


> <Salt_Solvent_ID>
0

> <Number of connected components>
1

$$$$
Molecule_1676
  Mrv2316 01072400032D          

 13 15  0  0  0  0            999 V2000
    2.7819   -0.2659    0.0000 C   0  0  0  0  0  0  0  0  0  0  0  0
    1.9749   -0.4375    0.0000 C   0  0  0  0  0  0  0  0  0  0  0  0
    1.7200   -1.2221    0.0000 C   0  0  0  0  0  0  0  0  0  0  0  0
    2.2720   -1.8352    0.0000 C   0  0  0  0  0  0  0  0  0  0  0  0
    3.0790   -1.6637    0.0000 C   0  0  0  0  0  0  0  0  0  0  0  0
    3.7464   -2.1486    0.0000 N   0  0  0  0  0  0  0  0  0  0  0  0
    4.4139   -1.6637    0.0000 C   0  0  0  0  0  0  0  0  0  0  0  0
    5.2208   -1.8352    0.0000 C   0  0  0  0  0  0  0  0  0  0  0  0
    5.7729   -1.2221    0.0000 C   0  0  0  0  0  0  0  0  0  0  0  0
    5.5179   -0.4375    0.0000 C   0  0  0  0  0  0  0  0  0  0  0  0
    4.7110   -0.2659    0.0000 C   0  0  0  0  0  0  0  0  0  0  0  0
    4.1589   -0.8790    0.0000 C   0  0  0  0  0  0  0  0  0  0  0  0
    3.3339   -0.8790    0.0000 C   0  0  0  0  0  0  0  0  0  0  0  0
  2  1  2  0  0  0  0
  3  2  1  0  0  0  0
  4  3  2  0  0  0  0
  5  4  1  0  0  0  0
  5  6  1  0  0  0  0
  6  7  1  0  0  0  0
  8  7  2  0  0  0  0
  9  8  1  0  0  0  0
 10  9  2  0  0  0  0
 11 10  1  0  0  0  0
 12 11  2  0  0  0  0
  7 12  1  0  0  0  0
 12 13  1  0  0  0  0
  1 13  1  0  0  0  0
 13  5  2  0  0  0  0
M  END
> <RowID>
1676

> <Original_SMILES>
C1=CC=CC2NC3=CC=CC=C3C=21

> <Canonical_QSARr>
C1=CC=CC2NC3=CC=CC=C3C=21

> <InChI_Code_QSARr>
InChI=1S/C12H9N/c1-3-7-11-9(5-1)10-6-2-4-8-12(10)13-11/h1-8,13H

> <InChI Key_QSARr>
UJOBWOGCFQCDNV-UHFFFAOYSA-N

> <Salt_Solvent>


> <Salt_Solvent_ID>
0

> <Number of connected components>
1

$$$$
Molecule_1677
  Mrv2316 01072400032D          

 16 16  0  0  0  0            999 V2000
    2.0541    1.2891    0.0000 C   0  0  0  0  0  0  0  0  0  0  0  0
    1.3396    0.8766    0.0000 C   0  0  0  0  0  0  0  0  0  0  0  0
    0.6252    1.2891    0.0000 C   0  0  0  0  0  0  0  0  0  0  0  0
    0.6252    2.1141    0.0000 N   0  3  0  0  0  0  0  0  0  0  0  0
   -0.0893    2.5266    0.0000 O   0  5  0  0  0  0  0  0  0  0  0  0
    1.3396    2.5266    0.0000 O   0  0  0  0  0  0  0  0  0  0  0  0
   -0.0893    0.8766    0.0000 C   0  0  0  0  0  0  0  0  0  0  0  0
   -0.0893    0.0516    0.0000 C   0  0  0  0  0  0  0  0  0  0  0  0
   -0.8038   -0.3609    0.0000 N   0  3  0  0  0  0  0  0  0  0  0  0
   -0.8038   -1.1859    0.0000 O   0  5  0  0  0  0  0  0  0  0  0  0
   -1.5183    0.0516    0.0000 O   0  0  0  0  0  0  0  0  0  0  0  0
    0.6252   -0.3609    0.0000 C   0  0  0  0  0  0  0  0  0  0  0  0
    1.3396    0.0516    0.0000 C   0  0  0  0  0  0  0  0  0  0  0  0
    2.0541   -0.3609    0.0000 N   0  3  0  0  0  0  0  0  0  0  0  0
    2.7686    0.0516    0.0000 O   0  5  0  0  0  0  0  0  0  0  0  0
    2.0541   -1.1859    0.0000 O   0  0  0  0  0  0  0  0  0  0  0  0
  1  2  1  0  0  0  0
  3  2  1  0  0  0  0
  3  4  1  0  0  0  0
  4  5  1  0  0  0  0
  4  6  2  0  0  0  0
  7  3  2  0  0  0  0
  8  7  1  0  0  0  0
  8  9  1  0  0  0  0
  9 10  1  0  0  0  0
  9 11  2  0  0  0  0
 12  8  2  0  0  0  0
 13 12  1  0  0  0  0
  2 13  2  0  0  0  0
 13 14  1  0  0  0  0
 14 15  1  0  0  0  0
 14 16  2  0  0  0  0
M  CHG  6   4   1   5  -1   9   1  10  -1  14   1  15  -1
M  END
> <RowID>
1677

> <Original_SMILES>
CC1C(=CC(=CC=1[N+]([O-])=O)[N+]([O-])=O)[N+]([O-])=O

> <Canonical_QSARr>
CC1C(=CC(=CC=1[N+]([O-])=O)[N+]([O-])=O)[N+]([O-])=O

> <InChI_Code_QSARr>
InChI=1S/C7H5N3O6/c1-4-6(9(13)14)2-5(8(11)12)3-7(4)10(15)16/h2-3H,1H3

> <InChI Key_QSARr>
SPSSULHKWOKEEL-UHFFFAOYSA-N

> <Salt_Solvent>


> <Salt_Solvent_ID>
0

> <Number of connected components>
1

$$$$
Molecule_1678
  Mrv2316 01072400032D          

 28 30  0  0  0  0            999 V2000
    2.8579   -0.0000    0.0000 C   0  0  0  0  0  0  0  0  0  0  0  0
    3.5724    0.4125    0.0000 C   0  0  0  0  0  0  0  0  0  0  0  0
    4.2868   -0.0000    0.0000 C   0  0  0  0  0  0  0  0  0  0  0  0
    4.2868   -0.8250    0.0000 C   0  0  0  0  0  0  0  0  0  0  0  0
    5.0013    0.4125    0.0000 C   0  0  0  0  0  0  0  0  0  0  0  0
    5.0013    1.2375    0.0000 O   0  0  0  0  0  0  0  0  0  0  0  0
    5.7158   -0.0000    0.0000 O   0  0  0  0  0  0  0  0  0  0  0  0
    6.4302    0.4125    0.0000 C   0  0  0  0  0  0  0  0  0  0  0  0
    6.4302    1.2375    0.0000 C   0  0  0  0  0  0  0  0  0  0  0  0
    7.1447    1.6500    0.0000 C   0  0  0  0  0  0  0  0  0  0  0  0
    7.8592    1.2375    0.0000 C   0  0  0  0  0  0  0  0  0  0  0  0
    7.8592    0.4125    0.0000 C   0  0  0  0  0  0  0  0  0  0  0  0
    8.5737   -0.0000    0.0000 C   0  0  0  0  0  0  0  0  0  0  0  0
    8.5737   -0.8250    0.0000 C   0  0  0  0  0  0  0  0  0  0  0  0
    7.8592   -1.2375    0.0000 C   0  0  0  0  0  0  0  0  0  0  0  0
    7.8592   -2.0625    0.0000 C   0  0  0  0  0  0  0  0  0  0  0  0
    7.1447   -0.8250    0.0000 C   0  0  0  0  0  0  0  0  0  0  0  0
    6.4302   -1.2375    0.0000 C   0  0  0  0  0  0  0  0  0  0  0  0
    6.4302   -2.0625    0.0000 C   0  0  0  0  0  0  0  0  0  0  0  0
    5.7158   -2.4750    0.0000 C   0  0  0  0  0  0  0  0  0  0  0  0
    5.0013   -2.0625    0.0000 C   0  0  0  0  0  0  0  0  0  0  0  0
    4.2868   -2.4750    0.0000 C   0  0  0  0  0  0  0  0  0  0  0  0
    3.5724   -2.0625    0.0000 O   0  0  0  0  0  0  0  0  0  0  0  0
    4.2868   -3.3000    0.0000 C   0  0  0  0  0  0  0  0  0  0  0  0
    5.0013   -3.7125    0.0000 C   0  0  0  0  0  0  0  0  0  0  0  0
    5.0013   -4.5375    0.0000 O   0  0  0  0  0  0  0  0  0  0  0  0
    5.7158   -3.3000    0.0000 O   0  0  0  0  0  0  0  0  0  0  0  0
    7.1447   -0.0000    0.0000 C   0  0  0  0  0  0  0  0  0  0  0  0
  1  2  1  0  0  0  0
  2  3  1  0  0  0  0
  3  4  1  0  0  0  0
  3  5  1  0  0  0  0
  5  6  2  0  0  0  0
  5  7  1  0  0  0  0
  7  8  1  0  0  0  0
  9  8  1  0  0  0  0
 10  9  1  0  0  0  0
 11 10  1  0  0  0  0
 12 11  2  0  0  0  0
 12 13  1  0  0  0  0
 13 14  2  0  0  0  0
 14 15  1  0  0  0  0
 15 16  1  0  0  0  0
 15 17  1  0  0  0  0
 17 18  1  0  0  0  0
 18 19  1  0  0  0  0
 19 20  1  0  0  0  0
 21 20  1  0  0  0  0
 22 21  1  0  0  0  0
 22 23  1  0  0  0  0
 24 22  1  0  0  0  0
 25 24  1  0  0  0  0
 25 26  2  0  0  0  0
 27 25  1  0  0  0  0
 20 27  1  0  0  0  0
 17 28  1  0  0  0  0
  8 28  1  0  0  0  0
 28 12  1  0  0  0  0
M  END
> <RowID>
1678

> <Original_SMILES>
CCC(C)C(=O)OC1CCC=C2C=CC(C)C(CCC3CC(O)CC(=O)O3)C21

> <Canonical_QSARr>
CCC(C)C(=O)OC1CCC=C2C=CC(C)C(CCC3CC(O)CC(=O)O3)C21

> <InChI_Code_QSARr>
InChI=1S/C23H34O5/c1-4-14(2)23(26)28-20-7-5-6-16-9-8-15(3)19(22(16)20)11-10-18-12-17(24)13-21(25)27-18/h6,8-9,14-15,17-20,22,24H,4-5,7,10-13H2,1-3H3

> <InChI Key_QSARr>
AJLFOPYRIVGYMJ-UHFFFAOYSA-N

> <Salt_Solvent>


> <Salt_Solvent_ID>
0

> <Number of connected components>
1

$$$$
Molecule_1679
  Mrv2316 01072400032D          

  6  5  0  0  0  0            999 V2000
   -0.1914   -1.5395    0.0000 N   0  0  0  0  0  0  0  0  0  0  0  0
    0.5230   -1.1270    0.0000 C   0  0  0  0  0  0  0  0  0  0  0  0
    1.2375   -0.7145    0.0000 C   0  0  0  0  0  0  0  0  0  0  0  0
    1.9520   -1.1270    0.0000 C   0  0  0  0  0  0  0  0  0  0  0  0
    2.6664   -0.7145    0.0000 C   0  0  0  0  0  0  0  0  0  0  0  0
    3.3809   -0.3020    0.0000 N   0  0  0  0  0  0  0  0  0  0  0  0
  1  2  3  0  0  0  0
  2  3  1  0  0  0  0
  3  4  1  0  0  0  0
  4  5  1  0  0  0  0
  5  6  3  0  0  0  0
M  END
> <RowID>
1679

> <Original_SMILES>
N#CCCC#N

> <Canonical_QSARr>
N#CCCC#N

> <InChI_Code_QSARr>
InChI=1S/C4H4N2/c5-3-1-2-4-6/h1-2H2

> <InChI Key_QSARr>
IAHFWCOBPZCAEA-UHFFFAOYSA-N

> <Salt_Solvent>


> <Salt_Solvent_ID>
0

> <Number of connected components>
1

$$$$
Molecule_1681
  Mrv2316 01072400032D          

 18 18  0  0  0  0            999 V2000
    2.1434   -1.2375    0.0000 O   0  0  0  0  0  0  0  0  0  0  0  0
    2.1434   -0.4125    0.0000 C   0  0  0  0  0  0  0  0  0  0  0  0
    2.8579   -0.0000    0.0000 O   0  0  0  0  0  0  0  0  0  0  0  0
    1.4289   -0.0000    0.0000 C   0  0  0  0  0  0  0  0  0  0  0  0
    1.4289    0.8250    0.0000 C   0  0  0  0  0  0  0  0  0  0  0  0
    0.7145    1.2375    0.0000 C   0  0  0  0  0  0  0  0  0  0  0  0
    0.7145    2.0625    0.0000 C   0  0  0  0  0  0  0  0  0  0  0  0
   -0.0000    2.4750    0.0000 O   0  0  0  0  0  0  0  0  0  0  0  0
    1.4289    2.4750    0.0000 O   0  0  0  0  0  0  0  0  0  0  0  0
   -0.0000    0.8250    0.0000 C   0  0  0  0  0  0  0  0  0  0  0  0
   -0.7145    1.2375    0.0000 C   0  0  0  0  0  0  0  0  0  0  0  0
   -1.4289    0.8250    0.0000 O   0  0  0  0  0  0  0  0  0  0  0  0
   -0.7145    2.0625    0.0000 O   0  0  0  0  0  0  0  0  0  0  0  0
   -0.0000    0.0000    0.0000 C   0  0  0  0  0  0  0  0  0  0  0  0
    0.7145   -0.4125    0.0000 C   0  0  0  0  0  0  0  0  0  0  0  0
    0.7145   -1.2375    0.0000 C   0  0  0  0  0  0  0  0  0  0  0  0
    1.4289   -1.6500    0.0000 O   0  0  0  0  0  0  0  0  0  0  0  0
   -0.0000   -1.6500    0.0000 O   0  0  0  0  0  0  0  0  0  0  0  0
  1  2  1  0  0  0  0
  2  3  2  0  0  0  0
  2  4  1  0  0  0  0
  5  4  2  0  0  0  0
  6  5  1  0  0  0  0
  6  7  1  0  0  0  0
  7  8  1  0  0  0  0
  7  9  2  0  0  0  0
 10  6  2  0  0  0  0
 10 11  1  0  0  0  0
 11 12  1  0  0  0  0
 11 13  2  0  0  0  0
 14 10  1  0  0  0  0
 15 14  2  0  0  0  0
  4 15  1  0  0  0  0
 15 16  1  0  0  0  0
 16 17  1  0  0  0  0
 16 18  2  0  0  0  0
M  END
> <RowID>
1681

> <Original_SMILES>
OC(=O)C1=CC(=C(C=C1C(O)=O)C(O)=O)C(O)=O

> <Canonical_QSARr>
OC(=O)C1=CC(=C(C=C1C(O)=O)C(O)=O)C(O)=O

> <InChI_Code_QSARr>
InChI=1S/C10H6O8/c11-7(12)3-1-4(8(13)14)6(10(17)18)2-5(3)9(15)16/h1-2H,(H,11,12)(H,13,14)(H,15,16)(H,17,18)

> <InChI Key_QSARr>
CYIDZMCFTVVTJO-UHFFFAOYSA-N

> <Salt_Solvent>


> <Salt_Solvent_ID>
0

> <Number of connected components>
1

$$$$
Molecule_1682
  Mrv2316 01072400032D          

 16 17  0  0  0  0            999 V2000
   -0.5506   -1.6944    0.0000 O   0  0  0  0  0  0  0  0  0  0  0  0
    0.2699   -1.7807    0.0000 C   0  0  0  0  0  0  0  0  0  0  0  0
    0.6055   -2.5344    0.0000 O   0  0  0  0  0  0  0  0  0  0  0  0
    0.7548   -1.1132    0.0000 C   0  0  0  0  0  0  0  0  0  0  0  0
    0.4999   -0.3286    0.0000 C   0  0  0  0  0  0  0  0  0  0  0  0
    1.1673    0.1563    0.0000 C   0  0  0  0  0  0  0  0  0  0  0  0
    1.1673    0.9813    0.0000 Br  0  0  0  0  0  0  0  0  0  0  0  0
    1.8348   -0.3286    0.0000 N   0  0  0  0  0  0  0  0  0  0  0  0
    1.5798   -1.1132    0.0000 N   0  0  0  0  0  0  0  0  0  0  0  0
    2.0648   -1.7807    0.0000 C   0  0  0  0  0  0  0  0  0  0  0  0
    1.7292   -2.5344    0.0000 N   0  0  0  0  0  0  0  0  0  0  0  0
    2.2141   -3.2018    0.0000 C   0  0  0  0  0  0  0  0  0  0  0  0
    3.0346   -3.1156    0.0000 C   0  0  0  0  0  0  0  0  0  0  0  0
    3.3702   -2.3619    0.0000 C   0  0  0  0  0  0  0  0  0  0  0  0
    2.8852   -1.6944    0.0000 C   0  0  0  0  0  0  0  0  0  0  0  0
    3.2208   -0.9408    0.0000 Cl  0  0  0  0  0  0  0  0  0  0  0  0
  1  2  1  0  0  0  0
  2  3  2  0  0  0  0
  2  4  1  0  0  0  0
  5  4  2  0  0  0  0
  6  5  1  0  0  0  0
  6  7  1  0  0  0  0
  8  6  2  0  0  0  0
  9  8  1  0  0  0  0
  4  9  1  0  0  0  0
  9 10  1  0  0  0  0
 11 10  1  0  0  0  0
 12 11  2  0  0  0  0
 13 12  1  0  0  0  0
 14 13  2  0  0  0  0
 15 14  1  0  0  0  0
 10 15  2  0  0  0  0
 15 16  1  0  0  0  0
M  END
> <RowID>
1682

> <Original_SMILES>
OC(=O)C1=CC(Br)=NN1C1N=CC=CC=1Cl

> <Canonical_QSARr>
OC(=O)C1=CC(Br)=NN1C1N=CC=CC=1Cl

> <InChI_Code_QSARr>
InChI=1S/C9H5BrClN3O2/c10-7-4-6(9(15)16)14(13-7)8-5(11)2-1-3-12-8/h1-4H,(H,15,16)

> <InChI Key_QSARr>
FORBXGROTPOMEH-UHFFFAOYSA-N

> <Salt_Solvent>


> <Salt_Solvent_ID>
0

> <Number of connected components>
1

$$$$
Molecule_1683
  Mrv2316 01072400032D          

 53 52  0  0  0  0            999 V2000
   39.0907   16.7940    0.0000 C   0  0  0  0  0  0  0  0  0  0  0  0
   38.3763   16.3815    0.0000 C   0  0  0  0  0  0  0  0  0  0  0  0
   38.3763   15.5565    0.0000 C   0  0  0  0  0  0  0  0  0  0  0  0
   37.6618   15.1440    0.0000 C   0  0  0  0  0  0  0  0  0  0  0  0
   37.6618   14.3190    0.0000 C   0  0  0  0  0  0  0  0  0  0  0  0
   36.9473   13.9065    0.0000 C   0  0  0  0  0  0  0  0  0  0  0  0
   36.9473   13.0815    0.0000 C   0  0  0  0  0  0  0  0  0  0  0  0
   36.2329   12.6690    0.0000 C   0  0  0  0  0  0  0  0  0  0  0  0
   36.2329   11.8440    0.0000 C   0  0  0  0  0  0  0  0  0  0  0  0
   35.5184   11.4315    0.0000 C   0  0  0  0  0  0  0  0  0  0  0  0
   34.8039   11.8440    0.0000 O   0  0  0  0  0  0  0  0  0  0  0  0
   34.0894   11.4315    0.0000 C   0  0  0  0  0  0  0  0  0  0  0  0
   34.0894   10.6065    0.0000 O   0  0  0  0  0  0  0  0  0  0  0  0
   33.3750   11.8440    0.0000 C   0  0  0  0  0  0  0  0  0  0  0  0
   32.6605   11.4315    0.0000 C   0  0  0  0  0  0  0  0  0  0  0  0
   31.9460   11.8440    0.0000 C   0  0  0  0  0  0  0  0  0  0  0  0
   31.2316   11.4315    0.0000 C   0  0  0  0  0  0  0  0  0  0  0  0
   30.5171   11.8440    0.0000 C   0  0  0  0  0  0  0  0  0  0  0  0
   29.8026   11.4315    0.0000 C   0  0  0  0  0  0  0  0  0  0  0  0
   29.0881   11.8440    0.0000 C   0  0  0  0  0  0  0  0  0  0  0  0
   28.3737   11.4315    0.0000 C   0  0  0  0  0  0  0  0  0  0  0  0
   28.3737   10.6065    0.0000 O   0  0  0  0  0  0  0  0  0  0  0  0
   27.6592   11.8440    0.0000 O   0  0  0  0  0  0  0  0  0  0  0  0
   26.9447   11.4315    0.0000 C   0  0  0  0  0  0  0  0  0  0  0  0
   26.2303   11.8440    0.0000 C   0  0  0  0  0  0  0  0  0  0  0  0
   25.5158   11.4315    0.0000 C   0  0  0  0  0  0  0  0  0  0  0  0
   24.8013   11.8440    0.0000 C   0  0  0  0  0  0  0  0  0  0  0  0
   24.0869   11.4315    0.0000 C   0  0  0  0  0  0  0  0  0  0  0  0
   23.3724   11.8440    0.0000 C   0  0  0  0  0  0  0  0  0  0  0  0
   22.6579   11.4315    0.0000 C   0  0  0  0  0  0  0  0  0  0  0  0
   21.9434   11.8440    0.0000 C   0  0  0  0  0  0  0  0  0  0  0  0
   21.2290   11.4315    0.0000 C   0  0  0  0  0  0  0  0  0  0  0  0
   20.5145   11.8440    0.0000 C   0  0  0  0  0  0  0  0  0  0  0  0
   19.8000   11.4315    0.0000 C   0  0  0  0  0  0  0  0  0  0  0  0
   19.0856   11.8440    0.0000 C   0  0  0  0  0  0  0  0  0  0  0  0
   26.2303   12.6690    0.0000 C   0  0  0  0  0  0  0  0  0  0  0  0
   26.9447   13.0815    0.0000 C   0  0  0  0  0  0  0  0  0  0  0  0
   26.9447   13.9065    0.0000 C   0  0  0  0  0  0  0  0  0  0  0  0
   27.6592   14.3190    0.0000 C   0  0  0  0  0  0  0  0  0  0  0  0
   27.6592   15.1440    0.0000 C   0  0  0  0  0  0  0  0  0  0  0  0
   28.3737   15.5565    0.0000 C   0  0  0  0  0  0  0  0  0  0  0  0
   28.3737   16.3815    0.0000 C   0  0  0  0  0  0  0  0  0  0  0  0
   29.0881   16.7940    0.0000 C   0  0  0  0  0  0  0  0  0  0  0  0
   36.9473   11.4315    0.0000 C   0  0  0  0  0  0  0  0  0  0  0  0
   37.6618   11.8440    0.0000 C   0  0  0  0  0  0  0  0  0  0  0  0
   38.3763   11.4315    0.0000 C   0  0  0  0  0  0  0  0  0  0  0  0
   39.0907   11.8440    0.0000 C   0  0  0  0  0  0  0  0  0  0  0  0
   39.8052   11.4315    0.0000 C   0  0  0  0  0  0  0  0  0  0  0  0
   40.5197   11.8440    0.0000 C   0  0  0  0  0  0  0  0  0  0  0  0
   41.2342   11.4315    0.0000 C   0  0  0  0  0  0  0  0  0  0  0  0
   41.9486   11.8440    0.0000 C   0  0  0  0  0  0  0  0  0  0  0  0
   42.6631   11.4315    0.0000 C   0  0  0  0  0  0  0  0  0  0  0  0
   43.3776   11.8440    0.0000 C   0  0  0  0  0  0  0  0  0  0  0  0
  1  2  1  0  0  0  0
  2  3  1  0  0  0  0
  3  4  1  0  0  0  0
  4  5  1  0  0  0  0
  5  6  1  0  0  0  0
  6  7  1  0  0  0  0
  7  8  1  0  0  0  0
  8  9  1  0  0  0  0
  9 10  1  0  0  0  0
 10 11  1  0  0  0  0
 11 12  1  0  0  0  0
 12 13  2  0  0  0  0
 12 14  1  0  0  0  0
 14 15  1  0  0  0  0
 15 16  1  0  0  0  0
 16 17  1  0  0  0  0
 17 18  1  0  0  0  0
 18 19  1  0  0  0  0
 19 20  1  0  0  0  0
 20 21  1  0  0  0  0
 21 22  2  0  0  0  0
 21 23  1  0  0  0  0
 23 24  1  0  0  0  0
 24 25  1  0  0  0  0
 25 26  1  0  0  0  0
 26 27  1  0  0  0  0
 27 28  1  0  0  0  0
 28 29  1  0  0  0  0
 29 30  1  0  0  0  0
 30 31  1  0  0  0  0
 31 32  1  0  0  0  0
 32 33  1  0  0  0  0
 33 34  1  0  0  0  0
 34 35  1  0  0  0  0
 25 36  1  0  0  0  0
 36 37  1  0  0  0  0
 37 38  1  0  0  0  0
 38 39  1  0  0  0  0
 39 40  1  0  0  0  0
 40 41  1  0  0  0  0
 41 42  1  0  0  0  0
 42 43  1  0  0  0  0
  9 44  1  0  0  0  0
 44 45  1  0  0  0  0
 45 46  1  0  0  0  0
 46 47  1  0  0  0  0
 47 48  1  0  0  0  0
 48 49  1  0  0  0  0
 49 50  1  0  0  0  0
 50 51  1  0  0  0  0
 51 52  1  0  0  0  0
 52 53  1  0  0  0  0
M  END
> <RowID>
1683

> <Original_SMILES>
CCCCCCCCC(COC(=O)CCCCCCCC(=O)OCC(CCCCCCCCCC)CCCCCCCC)CCCCCCCCCC

> <Canonical_QSARr>
CCCCCCCCC(COC(=O)CCCCCCCC(=O)OCC(CCCCCCCCCC)CCCCCCCC)CCCCCCCCCC

> <InChI_Code_QSARr>
InChI=1S/C49H96O4/c1-5-9-13-17-21-23-28-34-40-46(38-32-26-19-15-11-7-3)44-52-48(50)42-36-30-25-31-37-43-49(51)53-45-47(39-33-27-20-16-12-8-4)41-35-29-24-22-18-14-10-6-2/h46-47H,5-45H2,1-4H3

> <InChI Key_QSARr>
NSYFALGTRQFICU-UHFFFAOYSA-N

> <Salt_Solvent>


> <Salt_Solvent_ID>
0

> <Number of connected components>
1

$$$$
Molecule_1684
  Mrv2316 01072400032D          

 22 24  0  0  0  0            999 V2000
   -0.8768    1.7812    0.0000 C   0  0  0  0  0  0  0  0  0  0  0  0
   -0.8768    0.9562    0.0000 O   0  0  0  0  0  0  0  0  0  0  0  0
   -1.5913    0.5437    0.0000 C   0  0  0  0  0  0  0  0  0  0  0  0
   -2.3058    0.9562    0.0000 C   0  0  0  0  0  0  0  0  0  0  0  0
   -3.0203    0.5437    0.0000 C   0  0  0  0  0  0  0  0  0  0  0  0
   -3.0203   -0.2813    0.0000 C   0  0  0  0  0  0  0  0  0  0  0  0
   -2.3058   -0.6938    0.0000 C   0  0  0  0  0  0  0  0  0  0  0  0
   -1.5913   -0.2813    0.0000 C   0  0  0  0  0  0  0  0  0  0  0  0
   -0.8768   -0.6938    0.0000 N   0  0  0  0  0  0  0  0  0  0  0  0
   -0.1624   -0.2812    0.0000 C   0  0  0  0  0  0  0  0  0  0  0  0
   -0.1624    0.5438    0.0000 O   0  0  0  0  0  0  0  0  0  0  0  0
    0.5521   -0.6937    0.0000 C   0  0  0  0  0  0  0  0  0  0  0  0
    1.2666   -0.2812    0.0000 C   0  0  0  0  0  0  0  0  0  0  0  0
    1.9810   -0.6937    0.0000 C   0  0  0  0  0  0  0  0  0  0  0  0
    2.6955   -0.2812    0.0000 C   0  0  0  0  0  0  0  0  0  0  0  0
    3.4100   -0.6937    0.0000 C   0  0  0  0  0  0  0  0  0  0  0  0
    3.4100   -1.5187    0.0000 C   0  0  0  0  0  0  0  0  0  0  0  0
    2.6955   -1.9312    0.0000 C   0  0  0  0  0  0  0  0  0  0  0  0
    1.9810   -1.5187    0.0000 C   0  0  0  0  0  0  0  0  0  0  0  0
    1.2666   -1.9312    0.0000 C   0  0  0  0  0  0  0  0  0  0  0  0
    0.5521   -1.5187    0.0000 C   0  0  0  0  0  0  0  0  0  0  0  0
   -0.1624   -1.9312    0.0000 O   0  0  0  0  0  0  0  0  0  0  0  0
  1  2  1  0  0  0  0
  2  3  1  0  0  0  0
  4  3  2  0  0  0  0
  5  4  1  0  0  0  0
  6  5  2  0  0  0  0
  7  6  1  0  0  0  0
  8  7  2  0  0  0  0
  3  8  1  0  0  0  0
  8  9  1  0  0  0  0
  9 10  1  0  0  0  0
 10 11  2  0  0  0  0
 10 12  1  0  0  0  0
 13 12  2  0  0  0  0
 14 13  1  0  0  0  0
 14 15  1  0  0  0  0
 15 16  2  0  0  0  0
 16 17  1  0  0  0  0
 17 18  2  0  0  0  0
 18 19  1  0  0  0  0
 19 14  2  0  0  0  0
 20 19  1  0  0  0  0
 21 20  2  0  0  0  0
 12 21  1  0  0  0  0
 21 22  1  0  0  0  0
M  END
> <RowID>
1684

> <Original_SMILES>
COC1=CC=CC=C1NC(=O)C1=CC2C=CC=CC=2C=C1O

> <Canonical_QSARr>
COC1=CC=CC=C1NC(=O)C1=CC2C=CC=CC=2C=C1O

> <InChI_Code_QSARr>
InChI=1S/C18H15NO3/c1-22-17-9-5-4-8-15(17)19-18(21)14-10-12-6-2-3-7-13(12)11-16(14)20/h2-11,20H,1H3,(H,19,21)

> <InChI Key_QSARr>
AQYMRQUYPFCXDM-UHFFFAOYSA-N

> <Salt_Solvent>


> <Salt_Solvent_ID>
0

> <Number of connected components>
1

$$$$
Molecule_1686
  Mrv2316 01072400032D          

  1  0  0  0  0  0            999 V2000
    0.0000    0.0000    0.0000 C   0  0  0  0  0  0  0  0  0  0  0  0
M  END
> <RowID>
1686

> <Original_SMILES>
C.[Mo].[Mo]

> <Canonical_QSARr>
C

> <InChI_Code_QSARr>
InChI=1S/CH4/h1H4

> <InChI Key_QSARr>
VNWKTOKETHGBQD-UHFFFAOYSA-N

> <Salt_Solvent>
[Mo]

> <Salt_Solvent_ID>
420

> <Number of connected components>
3

$$$$
Molecule_1687
  Mrv2316 01072400032D          

 20 19  0  0  0  0            999 V2000
    1.7605    2.6664    0.0000 C   0  0  0  0  0  0  0  0  0  0  0  0
    1.7605    1.8414    0.0000 C   0  0  0  0  0  0  0  0  0  0  0  0
    1.0461    1.4289    0.0000 C   0  0  0  0  0  0  0  0  0  0  0  0
    0.3316    1.8414    0.0000 C   0  0  0  0  0  0  0  0  0  0  0  0
   -0.3829    2.2539    0.0000 C   0  0  0  0  0  0  0  0  0  0  0  0
   -0.0809    1.1269    0.0000 C   0  0  0  0  0  0  0  0  0  0  0  0
    0.7441    2.5559    0.0000 C   0  0  0  0  0  0  0  0  0  0  0  0
    2.4750    1.4289    0.0000 C   0  0  0  0  0  0  0  0  0  0  0  0
    3.1895    1.8414    0.0000 C   0  0  0  0  0  0  0  0  0  0  0  0
    3.9040    1.4289    0.0000 O   0  0  0  0  0  0  0  0  0  0  0  0
    4.6184    1.8414    0.0000 C   0  0  0  0  0  0  0  0  0  0  0  0
    4.6184    2.6664    0.0000 O   0  0  0  0  0  0  0  0  0  0  0  0
    5.3329    1.4289    0.0000 C   0  0  0  0  0  0  0  0  0  0  0  0
    6.0474    1.8414    0.0000 C   0  0  0  0  0  0  0  0  0  0  0  0
    6.0474    2.6664    0.0000 C   0  0  0  0  0  0  0  0  0  0  0  0
    6.7618    1.4289    0.0000 C   0  0  0  0  0  0  0  0  0  0  0  0
    7.4763    1.8414    0.0000 C   0  0  0  0  0  0  0  0  0  0  0  0
    8.1908    2.2539    0.0000 C   0  0  0  0  0  0  0  0  0  0  0  0
    7.8888    1.1269    0.0000 C   0  0  0  0  0  0  0  0  0  0  0  0
    7.0638    2.5559    0.0000 C   0  0  0  0  0  0  0  0  0  0  0  0
  1  2  1  0  0  0  0
  2  3  1  0  0  0  0
  3  4  1  0  0  0  0
  4  5  1  0  0  0  0
  4  6  1  0  0  0  0
  4  7  1  0  0  0  0
  2  8  1  0  0  0  0
  8  9  1  0  0  0  0
  9 10  1  0  0  0  0
 10 11  1  0  0  0  0
 11 12  2  0  0  0  0
 11 13  1  0  0  0  0
 13 14  1  0  0  0  0
 14 15  1  0  0  0  0
 14 16  1  0  0  0  0
 16 17  1  0  0  0  0
 17 18  1  0  0  0  0
 17 19  1  0  0  0  0
 17 20  1  0  0  0  0
M  END
> <RowID>
1687

> <Original_SMILES>
CC(CC(C)(C)C)CCOC(=O)CC(C)CC(C)(C)C

> <Canonical_QSARr>
CC(CC(C)(C)C)CCOC(=O)CC(C)CC(C)(C)C

> <InChI_Code_QSARr>
InChI=1S/C18H36O2/c1-14(12-17(3,4)5)9-10-20-16(19)11-15(2)13-18(6,7)8/h14-15H,9-13H2,1-8H3

> <InChI Key_QSARr>
UIVPNOBLHXUKDX-UHFFFAOYSA-N

> <Salt_Solvent>


> <Salt_Solvent_ID>
0

> <Number of connected components>
1

$$$$
Molecule_1688
  Mrv2316 01072400032D          

 42 41  0  0  0  0            999 V2000
    8.0864   12.0940    0.0000 C   0  0  0  0  0  0  0  0  0  0  0  0
    8.8008   12.5065    0.0000 C   0  0  0  0  0  0  0  0  0  0  0  0
    9.5153   12.0940    0.0000 C   0  0  0  0  0  0  0  0  0  0  0  0
    9.5153   11.2690    0.0000 C   0  0  0  0  0  0  0  0  0  0  0  0
   10.2298   10.8565    0.0000 C   0  0  0  0  0  0  0  0  0  0  0  0
   10.2298   10.0315    0.0000 C   0  0  0  0  0  0  0  0  0  0  0  0
   10.9443    9.6190    0.0000 C   0  0  0  0  0  0  0  0  0  0  0  0
   10.9443    8.7940    0.0000 C   0  0  0  0  0  0  0  0  0  0  0  0
   11.6587    8.3815    0.0000 C   0  0  0  0  0  0  0  0  0  0  0  0
   11.6587    7.5565    0.0000 C   0  0  0  0  0  0  0  0  0  0  0  0
   12.3732    7.1440    0.0000 C   0  0  0  0  0  0  0  0  0  0  0  0
   13.0877    7.5565    0.0000 C   0  0  0  0  0  0  0  0  0  0  0  0
   13.8021    7.1440    0.0000 C   0  0  0  0  0  0  0  0  0  0  0  0
   14.5166    7.5565    0.0000 C   0  0  0  0  0  0  0  0  0  0  0  0
   15.2311    7.1440    0.0000 C   0  0  0  0  0  0  0  0  0  0  0  0
   15.9456    7.5565    0.0000 C   0  0  0  0  0  0  0  0  0  0  0  0
   16.6600    7.1440    0.0000 C   0  0  0  0  0  0  0  0  0  0  0  0
   17.3745    7.5565    0.0000 C   0  0  0  0  0  0  0  0  0  0  0  0
   18.0890    7.1440    0.0000 C   0  0  0  0  0  0  0  0  0  0  0  0
   18.8034    7.5565    0.0000 C   0  0  0  0  0  0  0  0  0  0  0  0
   19.5179    7.1440    0.0000 C   0  0  0  0  0  0  0  0  0  0  0  0
   20.2324    7.5565    0.0000 C   0  0  0  0  0  0  0  0  0  0  0  0
   20.2324    8.3815    0.0000 O   0  0  0  0  0  0  0  0  0  0  0  0
   20.9469    7.1440    0.0000 O   0  0  0  0  0  0  0  0  0  0  0  0
   21.6613    7.5565    0.0000 C   0  0  0  0  0  0  0  0  0  0  0  0
   22.3758    7.1440    0.0000 C   0  0  0  0  0  0  0  0  0  0  0  0
   23.0903    7.5565    0.0000 C   0  0  0  0  0  0  0  0  0  0  0  0
   23.8047    7.1440    0.0000 C   0  0  0  0  0  0  0  0  0  0  0  0
   24.5192    7.5565    0.0000 C   0  0  0  0  0  0  0  0  0  0  0  0
   25.2337    7.1440    0.0000 C   0  0  0  0  0  0  0  0  0  0  0  0
   25.9481    7.5565    0.0000 C   0  0  0  0  0  0  0  0  0  0  0  0
   26.6626    7.1440    0.0000 C   0  0  0  0  0  0  0  0  0  0  0  0
   27.3771    7.5565    0.0000 C   0  0  0  0  0  0  0  0  0  0  0  0
   28.0916    7.1440    0.0000 C   0  0  0  0  0  0  0  0  0  0  0  0
   28.8060    7.5565    0.0000 C   0  0  0  0  0  0  0  0  0  0  0  0
   29.5205    7.1440    0.0000 C   0  0  0  0  0  0  0  0  0  0  0  0
   29.5205    6.3190    0.0000 C   0  0  0  0  0  0  0  0  0  0  0  0
   30.2350    5.9065    0.0000 C   0  0  0  0  0  0  0  0  0  0  0  0
   30.2350    5.0815    0.0000 C   0  0  0  0  0  0  0  0  0  0  0  0
   30.9494    4.6690    0.0000 C   0  0  0  0  0  0  0  0  0  0  0  0
   30.9494    3.8440    0.0000 C   0  0  0  0  0  0  0  0  0  0  0  0
   31.6639    3.4315    0.0000 C   0  0  0  0  0  0  0  0  0  0  0  0
  1  2  1  0  0  0  0
  2  3  1  0  0  0  0
  3  4  1  0  0  0  0
  4  5  1  0  0  0  0
  5  6  1  0  0  0  0
  6  7  1  0  0  0  0
  7  8  1  0  0  0  0
  9  8  1  4  0  0  0
  9 10  2  0  0  0  0
 10 11  1  0  0  0  0
 11 12  1  0  0  0  0
 12 13  1  0  0  0  0
 13 14  1  0  0  0  0
 14 15  1  0  0  0  0
 15 16  1  0  0  0  0
 16 17  1  0  0  0  0
 17 18  1  0  0  0  0
 18 19  1  0  0  0  0
 19 20  1  0  0  0  0
 20 21  1  0  0  0  0
 21 22  1  0  0  0  0
 22 23  2  0  0  0  0
 22 24  1  0  0  0  0
 24 25  1  0  0  0  0
 25 26  1  0  0  0  0
 26 27  1  0  0  0  0
 27 28  1  0  0  0  0
 28 29  1  0  0  0  0
 29 30  1  0  0  0  0
 30 31  1  0  0  0  0
 31 32  1  0  0  0  0
 33 32  1  4  0  0  0
 33 34  2  0  0  0  0
 34 35  1  0  0  0  0
 35 36  1  0  0  0  0
 36 37  1  0  0  0  0
 37 38  1  0  0  0  0
 38 39  1  0  0  0  0
 39 40  1  0  0  0  0
 40 41  1  0  0  0  0
 41 42  1  0  0  0  0
M  END
> <RowID>
1688

> <Original_SMILES>
CCCCCCCCC=CCCCCCCCCCCCC(=O)OCCCCCCCCC=CCCCCCCCC

> <Canonical_QSARr>
CCCCCCCCC=CCCCCCCCCCCCC(=O)OCCCCCCCCC=CCCCCCCCC

> <InChI_Code_QSARr>
InChI=1S/C40H76O2/c1-3-5-7-9-11-13-15-17-19-21-22-23-24-26-28-30-32-34-36-38-40(41)42-39-37-35-33-31-29-27-25-20-18-16-14-12-10-8-6-4-2/h17-20H,3-16,21-39H2,1-2H3

> <InChI Key_QSARr>
SZAMSYKZCSDVBH-UHFFFAOYSA-N

> <Salt_Solvent>


> <Salt_Solvent_ID>
0

> <Number of connected components>
1

$$$$
Molecule_1689
  Mrv2316 01072400032D          

 10 10  0  0  0  0            999 V2000
    1.5718    0.5775    0.0000 N   0  0  0  0  0  0  0  0  0  0  0  0
    0.8574    0.9900    0.0000 C   0  0  0  0  0  0  0  0  0  0  0  0
    0.8574    1.8150    0.0000 N   0  0  0  0  0  0  0  0  0  0  0  0
    0.1429    0.5775    0.0000 N   0  0  0  0  0  0  0  0  0  0  0  0
   -0.5716    0.9900    0.0000 O   0  0  0  0  0  0  0  0  0  0  0  0
    0.1429   -0.2475    0.0000 C   0  0  0  0  0  0  0  0  0  0  0  0
   -0.5716   -0.6600    0.0000 N   0  0  0  0  0  0  0  0  0  0  0  0
    0.8574   -0.6600    0.0000 C   0  0  0  0  0  0  0  0  0  0  0  0
    1.5718   -0.2475    0.0000 C   0  0  0  0  0  0  0  0  0  0  0  0
    2.2863   -0.6600    0.0000 Cl  0  0  0  0  0  0  0  0  0  0  0  0
  2  1  1  0  0  0  0
  2  3  2  0  0  0  0
  4  2  1  0  0  0  0
  4  5  2  0  0  0  0
  6  4  2  0  0  0  0
  6  7  1  0  0  0  0
  8  6  1  0  0  0  0
  9  8  1  0  0  0  0
  1  9  2  0  0  0  0
  9 10  1  0  0  0  0
M  END
> <RowID>
1689

> <Original_SMILES>
NC1C=C(Cl)NC(=N)N=1=O

> <Canonical_QSARr>
NC1CC(Cl)=NC(=N)N=1=O

> <InChI_Code_QSARr>
InChI=1S/C4H5ClN4O/c5-2-1-3(6)9(10)4(7)8-2/h7H,1,6H2

> <InChI Key_QSARr>
ZKNZYWFPSFOHPU-UHFFFAOYSA-N

> <Salt_Solvent>


> <Salt_Solvent_ID>
0

> <Number of connected components>
1

$$$$
Molecule_1690
  Mrv2316 01072400032D          

 10  9  0  0  0  0            999 V2000
    1.0461    1.4289    0.0000 C   0  0  0  0  0  0  0  0  0  0  0  0
    1.7605    1.8414    0.0000 C   0  0  0  0  0  0  0  0  0  0  0  0
    1.7605    2.6664    0.0000 O   0  0  0  0  0  0  0  0  0  0  0  0
    2.4750    1.4289    0.0000 C   0  0  0  0  0  0  0  0  0  0  0  0
    3.1895    1.8414    0.0000 C   0  0  0  0  0  0  0  0  0  0  0  0
    3.1895    2.6664    0.0000 O   0  0  0  0  0  0  0  0  0  0  0  0
    3.9039    1.4289    0.0000 O   0  0  0  0  0  0  0  0  0  0  0  0
    4.6184    1.8414    0.0000 C   0  0  0  0  0  0  0  0  0  0  0  0
    5.3329    1.4289    0.0000 C   0  0  0  0  0  0  0  0  0  0  0  0
    6.0474    1.8414    0.0000 C   0  0  0  0  0  0  0  0  0  0  0  0
  1  2  1  0  0  0  0
  2  3  2  0  0  0  0
  2  4  1  0  0  0  0
  4  5  1  0  0  0  0
  5  6  2  0  0  0  0
  5  7  1  0  0  0  0
  7  8  1  0  0  0  0
  8  9  1  0  0  0  0
  9 10  2  0  0  0  0
M  END
> <RowID>
1690

> <Original_SMILES>
CC(=O)CC(=O)OCC=C

> <Canonical_QSARr>
CC(=O)CC(=O)OCC=C

> <InChI_Code_QSARr>
InChI=1S/C7H10O3/c1-3-4-10-7(9)5-6(2)8/h3H,1,4-5H2,2H3

> <InChI Key_QSARr>
AXLMPTNTPOWPLT-UHFFFAOYSA-N

> <Salt_Solvent>


> <Salt_Solvent_ID>
0

> <Number of connected components>
1

$$$$
Molecule_1691
  Mrv2316 01072400032D          

 41 40  0  0  0  0            999 V2000
   -5.4434    0.1915    0.0000 C   0  0  0  0  0  0  0  0  0  0  0  0
   -4.6184    0.1915    0.0000 C   0  0  0  0  0  0  0  0  0  0  0  0
   -4.2059   -0.5230    0.0000 C   0  0  0  0  0  0  0  0  0  0  0  0
   -3.3809   -0.5230    0.0000 C   0  0  0  0  0  0  0  0  0  0  0  0
   -2.9684   -1.2375    0.0000 C   0  0  0  0  0  0  0  0  0  0  0  0
   -2.1434   -1.2375    0.0000 C   0  0  0  0  0  0  0  0  0  0  0  0
   -1.7309   -1.9519    0.0000 C   0  0  0  0  0  0  0  0  0  0  0  0
   -2.1434   -2.6664    0.0000 O   0  0  0  0  0  0  0  0  0  0  0  0
   -0.9059   -1.9519    0.0000 O   0  0  0  0  0  0  0  0  0  0  0  0
   -0.4934   -2.6664    0.0000 C   0  0  0  0  0  0  0  0  0  0  0  0
    0.3316   -2.6664    0.0000 C   0  0  0  0  0  0  0  0  0  0  0  0
    1.1566   -2.6664    0.0000 C   0  0  0  0  0  0  0  0  0  0  0  0
    1.5691   -3.3809    0.0000 O   0  0  0  0  0  0  0  0  0  0  0  0
    2.3941   -3.3809    0.0000 C   0  0  0  0  0  0  0  0  0  0  0  0
    2.8066   -2.6664    0.0000 O   0  0  0  0  0  0  0  0  0  0  0  0
    2.8066   -4.0954    0.0000 C   0  0  0  0  0  0  0  0  0  0  0  0
    3.6316   -4.0954    0.0000 C   0  0  0  0  0  0  0  0  0  0  0  0
    4.0441   -4.8098    0.0000 C   0  0  0  0  0  0  0  0  0  0  0  0
    4.8691   -4.8098    0.0000 C   0  0  0  0  0  0  0  0  0  0  0  0
    5.2816   -5.5243    0.0000 C   0  0  0  0  0  0  0  0  0  0  0  0
    6.1066   -5.5243    0.0000 C   0  0  0  0  0  0  0  0  0  0  0  0
    0.3316   -3.4914    0.0000 C   0  0  0  0  0  0  0  0  0  0  0  0
    1.0461   -3.9039    0.0000 O   0  0  0  0  0  0  0  0  0  0  0  0
    1.0461   -4.7289    0.0000 C   0  0  0  0  0  0  0  0  0  0  0  0
    0.3316   -5.1414    0.0000 O   0  0  0  0  0  0  0  0  0  0  0  0
    1.7605   -5.1414    0.0000 C   0  0  0  0  0  0  0  0  0  0  0  0
    1.7605   -5.9664    0.0000 C   0  0  0  0  0  0  0  0  0  0  0  0
    2.4750   -6.3789    0.0000 C   0  0  0  0  0  0  0  0  0  0  0  0
    2.4750   -7.2039    0.0000 C   0  0  0  0  0  0  0  0  0  0  0  0
    3.1895   -7.6164    0.0000 C   0  0  0  0  0  0  0  0  0  0  0  0
    3.1895   -8.4414    0.0000 C   0  0  0  0  0  0  0  0  0  0  0  0
    0.3316   -1.8414    0.0000 C   0  0  0  0  0  0  0  0  0  0  0  0
    1.0461   -1.4289    0.0000 O   0  0  0  0  0  0  0  0  0  0  0  0
    1.7605   -1.8414    0.0000 C   0  0  0  0  0  0  0  0  0  0  0  0
    1.7605   -2.6664    0.0000 O   0  0  0  0  0  0  0  0  0  0  0  0
    2.4750   -1.4289    0.0000 C   0  0  0  0  0  0  0  0  0  0  0  0
    3.1895   -1.8414    0.0000 C   0  0  0  0  0  0  0  0  0  0  0  0
    3.9040   -1.4289    0.0000 C   0  0  0  0  0  0  0  0  0  0  0  0
    4.6184   -1.8414    0.0000 C   0  0  0  0  0  0  0  0  0  0  0  0
    5.3329   -1.4289    0.0000 C   0  0  0  0  0  0  0  0  0  0  0  0
    6.0474   -1.8414    0.0000 C   0  0  0  0  0  0  0  0  0  0  0  0
  1  2  1  0  0  0  0
  2  3  1  0  0  0  0
  3  4  1  0  0  0  0
  4  5  1  0  0  0  0
  5  6  1  0  0  0  0
  6  7  1  0  0  0  0
  7  8  2  0  0  0  0
  7  9  1  0  0  0  0
  9 10  1  0  0  0  0
 10 11  1  0  0  0  0
 11 12  1  0  0  0  0
 12 13  1  0  0  0  0
 13 14  1  0  0  0  0
 14 15  2  0  0  0  0
 14 16  1  0  0  0  0
 16 17  1  0  0  0  0
 17 18  1  0  0  0  0
 18 19  1  0  0  0  0
 19 20  1  0  0  0  0
 20 21  1  0  0  0  0
 11 22  1  0  0  0  0
 22 23  1  0  0  0  0
 23 24  1  0  0  0  0
 24 25  2  0  0  0  0
 24 26  1  0  0  0  0
 26 27  1  0  0  0  0
 27 28  1  0  0  0  0
 28 29  1  0  0  0  0
 29 30  1  0  0  0  0
 30 31  1  0  0  0  0
 11 32  1  0  0  0  0
 32 33  1  0  0  0  0
 33 34  1  0  0  0  0
 34 35  2  0  0  0  0
 34 36  1  0  0  0  0
 36 37  1  0  0  0  0
 37 38  1  0  0  0  0
 38 39  1  0  0  0  0
 39 40  1  0  0  0  0
 40 41  1  0  0  0  0
M  END
> <RowID>
1691

> <Original_SMILES>
CCCCCCC(=O)OCC(COC(=O)CCCCCC)(COC(=O)CCCCCC)COC(=O)CCCCCC

> <Canonical_QSARr>
CCCCCCC(=O)OCC(COC(=O)CCCCCC)(COC(=O)CCCCCC)COC(=O)CCCCCC

> <InChI_Code_QSARr>
InChI=1S/C33H60O8/c1-5-9-13-17-21-29(34)38-25-33(26-39-30(35)22-18-14-10-6-2,27-40-31(36)23-19-15-11-7-3)28-41-32(37)24-20-16-12-8-4/h5-28H2,1-4H3

> <InChI Key_QSARr>
NCGQPNAQUYGWMI-UHFFFAOYSA-N

> <Salt_Solvent>


> <Salt_Solvent_ID>
0

> <Number of connected components>
1

$$$$
Molecule_1692
  Mrv2316 01072400032D          

 28 27  0  0  0  0            999 V2000
    9.7085    6.4302    0.0000 C   0  0  0  0  0  0  0  0  0  0  0  0
   10.4230    6.8427    0.0000 C   0  0  0  0  0  0  0  0  0  0  0  0
   11.1375    6.4302    0.0000 C   0  0  0  0  0  0  0  0  0  0  0  0
   11.8520    6.8427    0.0000 C   0  0  0  0  0  0  0  0  0  0  0  0
   12.5664    6.4302    0.0000 C   0  0  0  0  0  0  0  0  0  0  0  0
   12.5664    5.6052    0.0000 C   0  0  0  0  0  0  0  0  0  0  0  0
   13.2809    5.1927    0.0000 C   0  0  0  0  0  0  0  0  0  0  0  0
   13.2809    6.8427    0.0000 C   0  0  0  0  0  0  0  0  0  0  0  0
   13.2809    7.6677    0.0000 O   0  0  0  0  0  0  0  0  0  0  0  0
   13.9954    6.4302    0.0000 O   0  0  0  0  0  0  0  0  0  0  0  0
   14.7098    6.8427    0.0000 C   0  0  0  0  0  0  0  0  0  0  0  0
   15.4243    6.4302    0.0000 C   0  0  0  0  0  0  0  0  0  0  0  0
   16.1388    6.8427    0.0000 O   0  0  0  0  0  0  0  0  0  0  0  0
   16.8533    6.4302    0.0000 C   0  0  0  0  0  0  0  0  0  0  0  0
   17.5677    6.8427    0.0000 C   0  0  0  0  0  0  0  0  0  0  0  0
   18.2822    6.4302    0.0000 O   0  0  0  0  0  0  0  0  0  0  0  0
   18.9967    6.8427    0.0000 C   0  0  0  0  0  0  0  0  0  0  0  0
   19.7111    6.4302    0.0000 C   0  0  0  0  0  0  0  0  0  0  0  0
   20.4256    6.8427    0.0000 O   0  0  0  0  0  0  0  0  0  0  0  0
   21.1401    6.4302    0.0000 C   0  0  0  0  0  0  0  0  0  0  0  0
   21.1401    5.6052    0.0000 O   0  0  0  0  0  0  0  0  0  0  0  0
   21.8546    6.8427    0.0000 C   0  0  0  0  0  0  0  0  0  0  0  0
   22.5690    6.4302    0.0000 C   0  0  0  0  0  0  0  0  0  0  0  0
   23.2835    6.8427    0.0000 C   0  0  0  0  0  0  0  0  0  0  0  0
   23.9980    6.4302    0.0000 C   0  0  0  0  0  0  0  0  0  0  0  0
   24.7124    6.8427    0.0000 C   0  0  0  0  0  0  0  0  0  0  0  0
   21.8546    7.6677    0.0000 C   0  0  0  0  0  0  0  0  0  0  0  0
   22.5690    8.0802    0.0000 C   0  0  0  0  0  0  0  0  0  0  0  0
  1  2  1  0  0  0  0
  2  3  1  0  0  0  0
  3  4  1  0  0  0  0
  4  5  1  0  0  0  0
  5  6  1  0  0  0  0
  6  7  1  0  0  0  0
  5  8  1  0  0  0  0
  8  9  2  0  0  0  0
  8 10  1  0  0  0  0
 10 11  1  0  0  0  0
 11 12  1  0  0  0  0
 12 13  1  0  0  0  0
 13 14  1  0  0  0  0
 14 15  1  0  0  0  0
 15 16  1  0  0  0  0
 16 17  1  0  0  0  0
 17 18  1  0  0  0  0
 18 19  1  0  0  0  0
 19 20  1  0  0  0  0
 20 21  2  0  0  0  0
 20 22  1  0  0  0  0
 22 23  1  0  0  0  0
 23 24  1  0  0  0  0
 24 25  1  0  0  0  0
 25 26  1  0  0  0  0
 22 27  1  0  0  0  0
 27 28  1  0  0  0  0
M  END
> <RowID>
1692

> <Original_SMILES>
CCCCC(CC)C(=O)OCCOCCOCCOC(=O)C(CCCC)CC

> <Canonical_QSARr>
CCCCC(CC)C(=O)OCCOCCOCCOC(=O)C(CCCC)CC

> <InChI_Code_QSARr>
InChI=1S/C22H42O6/c1-5-9-11-19(7-3)21(23)27-17-15-25-13-14-26-16-18-28-22(24)20(8-4)12-10-6-2/h19-20H,5-18H2,1-4H3

> <InChI Key_QSARr>
FRQDZJMEHSJOPU-UHFFFAOYSA-N

> <Salt_Solvent>


> <Salt_Solvent_ID>
0

> <Number of connected components>
1

$$$$
Molecule_1693
  Mrv2316 01072400032D          

 76 81  0  0  0  0            999 V2000
   -4.9731  -13.7373    0.0000 O   0  0  0  0  0  0  0  0  0  0  0  0
   -4.9731  -12.9123    0.0000 S   0  0  0  0  0  0  0  0  0  0  0  0
   -4.1481  -12.9123    0.0000 O   0  0  0  0  0  0  0  0  0  0  0  0
   -5.7981  -12.9123    0.0000 O   0  0  0  0  0  0  0  0  0  0  0  0
   -4.9731  -12.0873    0.0000 C   0  0  0  0  0  0  0  0  0  0  0  0
   -4.2586  -11.6748    0.0000 C   0  0  0  0  0  0  0  0  0  0  0  0
   -4.2586  -10.8498    0.0000 C   0  0  0  0  0  0  0  0  0  0  0  0
   -4.9731  -10.4373    0.0000 C   0  0  0  0  0  0  0  0  0  0  0  0
   -4.9731   -9.6123    0.0000 S   0  0  0  0  0  0  0  0  0  0  0  0
   -4.9731   -8.7873    0.0000 O   0  0  0  0  0  0  0  0  0  0  0  0
   -5.7981   -9.6123    0.0000 O   0  0  0  0  0  0  0  0  0  0  0  0
   -4.1481   -9.6123    0.0000 O   0  0  0  0  0  0  0  0  0  0  0  0
   -5.6876  -10.8498    0.0000 C   0  0  0  0  0  0  0  0  0  0  0  0
   -6.4021  -10.4373    0.0000 N   0  0  0  0  0  0  0  0  0  0  0  0
   -7.1165  -10.8498    0.0000 C   0  0  0  0  0  0  0  0  0  0  0  0
   -7.8310  -10.4373    0.0000 N   0  0  0  0  0  0  0  0  0  0  0  0
   -8.5455  -10.8498    0.0000 C   0  0  0  0  0  0  0  0  0  0  0  0
   -9.2599  -10.4373    0.0000 N   0  0  0  0  0  0  0  0  0  0  0  0
   -9.9744  -10.8498    0.0000 C   0  0  0  0  0  0  0  0  0  0  0  0
  -10.6889  -10.4373    0.0000 C   0  0  0  0  0  0  0  0  0  0  0  0
  -11.4034  -10.8498    0.0000 C   0  0  0  0  0  0  0  0  0  0  0  0
  -11.4034  -11.6748    0.0000 C   0  0  0  0  0  0  0  0  0  0  0  0
  -12.1178  -12.0873    0.0000 C   0  0  0  0  0  0  0  0  0  0  0  0
  -12.8323  -11.6748    0.0000 C   0  0  0  0  0  0  0  0  0  0  0  0
  -13.5468  -12.0873    0.0000 C   0  0  0  0  0  0  0  0  0  0  0  0
  -14.2612  -11.6748    0.0000 C   0  0  0  0  0  0  0  0  0  0  0  0
  -14.2612  -10.8498    0.0000 S   0  0  0  0  0  0  0  0  0  0  0  0
  -14.2612  -10.0248    0.0000 O   0  0  0  0  0  0  0  0  0  0  0  0
  -15.0862  -10.8498    0.0000 O   0  0  0  0  0  0  0  0  0  0  0  0
  -13.4362  -10.8498    0.0000 O   0  0  0  0  0  0  0  0  0  0  0  0
  -14.9757  -12.0873    0.0000 C   0  0  0  0  0  0  0  0  0  0  0  0
  -14.9757  -12.9123    0.0000 C   0  0  0  0  0  0  0  0  0  0  0  0
  -15.6902  -13.3248    0.0000 N   0  0  0  0  0  0  0  0  0  0  0  0
  -16.4046  -12.9123    0.0000 C   0  0  0  0  0  0  0  0  0  0  0  0
  -17.1191  -13.3248    0.0000 N   0  0  0  0  0  0  0  0  0  0  0  0
  -17.8336  -12.9123    0.0000 C   0  0  0  0  0  0  0  0  0  0  0  0
  -18.5481  -13.3248    0.0000 N   0  0  0  0  0  0  0  0  0  0  0  0
  -18.5481  -14.1498    0.0000 C   0  0  0  0  0  0  0  0  0  0  0  0
  -19.2625  -14.5623    0.0000 C   0  0  0  0  0  0  0  0  0  0  0  0
  -19.2625  -12.9123    0.0000 C   0  0  0  0  0  0  0  0  0  0  0  0
  -19.9770  -13.3248    0.0000 C   0  0  0  0  0  0  0  0  0  0  0  0
  -17.8336  -12.0873    0.0000 N   0  0  0  0  0  0  0  0  0  0  0  0
  -17.1191  -11.6748    0.0000 C   0  0  0  0  0  0  0  0  0  0  0  0
  -17.1191  -10.8498    0.0000 N   0  0  0  0  0  0  0  0  0  0  0  0
  -17.8336  -10.4373    0.0000 C   0  0  0  0  0  0  0  0  0  0  0  0
  -17.8336   -9.6123    0.0000 C   0  0  0  0  0  0  0  0  0  0  0  0
  -17.1191   -9.1998    0.0000 S   0  0  0  0  0  0  0  0  0  0  0  0
  -16.4046   -8.7873    0.0000 O   0  0  0  0  0  0  0  0  0  0  0  0
  -17.5316   -8.4854    0.0000 O   0  0  0  0  0  0  0  0  0  0  0  0
  -16.7066   -9.9143    0.0000 O   0  0  0  0  0  0  0  0  0  0  0  0
  -18.5481   -9.1998    0.0000 C   0  0  0  0  0  0  0  0  0  0  0  0
  -19.2625   -9.6123    0.0000 C   0  0  0  0  0  0  0  0  0  0  0  0
  -19.2625  -10.4373    0.0000 C   0  0  0  0  0  0  0  0  0  0  0  0
  -19.9770  -10.8498    0.0000 S   0  0  0  0  0  0  0  0  0  0  0  0
  -20.6915  -11.2623    0.0000 O   0  0  0  0  0  0  0  0  0  0  0  0
  -20.3895  -10.1354    0.0000 O   0  0  0  0  0  0  0  0  0  0  0  0
  -19.5645  -11.5643    0.0000 O   0  0  0  0  0  0  0  0  0  0  0  0
  -18.5481  -10.8498    0.0000 C   0  0  0  0  0  0  0  0  0  0  0  0
  -16.4046  -12.0873    0.0000 N   0  0  0  0  0  0  0  0  0  0  0  0
  -14.2612  -13.3248    0.0000 C   0  0  0  0  0  0  0  0  0  0  0  0
  -13.5468  -12.9123    0.0000 C   0  0  0  0  0  0  0  0  0  0  0  0
  -10.6889  -12.0873    0.0000 C   0  0  0  0  0  0  0  0  0  0  0  0
  -10.6889  -12.9123    0.0000 S   0  0  0  0  0  0  0  0  0  0  0  0
  -10.6889  -13.7373    0.0000 O   0  0  0  0  0  0  0  0  0  0  0  0
   -9.8639  -12.9123    0.0000 O   0  0  0  0  0  0  0  0  0  0  0  0
  -11.5139  -12.9123    0.0000 O   0  0  0  0  0  0  0  0  0  0  0  0
   -9.9744  -11.6748    0.0000 C   0  0  0  0  0  0  0  0  0  0  0  0
   -8.5455  -11.6748    0.0000 N   0  0  0  0  0  0  0  0  0  0  0  0
   -7.8310  -12.0873    0.0000 C   0  0  0  0  0  0  0  0  0  0  0  0
   -7.8310  -12.9123    0.0000 N   0  0  0  0  0  0  0  0  0  0  0  0
   -7.1165  -13.3248    0.0000 C   0  0  0  0  0  0  0  0  0  0  0  0
   -7.1165  -14.1498    0.0000 C   0  0  0  0  0  0  0  0  0  0  0  0
   -8.5455  -13.3248    0.0000 C   0  0  0  0  0  0  0  0  0  0  0  0
   -8.5455  -14.1498    0.0000 C   0  0  0  0  0  0  0  0  0  0  0  0
   -7.1165  -11.6748    0.0000 N   0  0  0  0  0  0  0  0  0  0  0  0
   -5.6876  -11.6748    0.0000 C   0  0  0  0  0  0  0  0  0  0  0  0
  1  2  1  0  0  0  0
  2  3  2  0  0  0  0
  2  4  2  0  0  0  0
  2  5  1  0  0  0  0
  6  5  1  0  0  0  0
  7  6  2  0  0  0  0
  8  7  1  0  0  0  0
  8  9  1  0  0  0  0
  9 10  1  0  0  0  0
  9 11  2  0  0  0  0
  9 12  2  0  0  0  0
 13  8  2  0  0  0  0
 13 14  1  0  0  0  0
 14 15  1  0  0  0  0
 16 15  1  0  0  0  0
 17 16  2  0  0  0  0
 17 18  1  0  0  0  0
 18 19  1  0  0  0  0
 20 19  2  0  0  0  0
 21 20  1  0  0  0  0
 22 21  2  0  0  0  0
 23 22  1  4  0  0  0
 23 24  2  0  0  0  0
 24 25  1  0  0  0  0
 26 25  2  0  0  0  0
 26 27  1  0  0  0  0
 27 28  1  0  0  0  0
 27 29  2  0  0  0  0
 27 30  2  0  0  0  0
 31 26  1  0  0  0  0
 32 31  2  0  0  0  0
 32 33  1  0  0  0  0
 33 34  1  0  0  0  0
 35 34  2  0  0  0  0
 36 35  1  0  0  0  0
 36 37  1  0  0  0  0
 37 38  1  0  0  0  0
 38 39  1  0  0  0  0
 37 40  1  0  0  0  0
 40 41  1  0  0  0  0
 42 36  2  0  0  0  0
 43 42  1  0  0  0  0
 43 44  1  0  0  0  0
 44 45  1  0  0  0  0
 46 45  2  0  0  0  0
 46 47  1  0  0  0  0
 47 48  1  0  0  0  0
 47 49  2  0  0  0  0
 47 50  2  0  0  0  0
 51 46  1  0  0  0  0
 52 51  2  0  0  0  0
 53 52  1  0  0  0  0
 53 54  1  0  0  0  0
 54 55  1  0  0  0  0
 54 56  2  0  0  0  0
 54 57  2  0  0  0  0
 58 53  2  0  0  0  0
 45 58  1  0  0  0  0
 59 43  2  0  0  0  0
 34 59  1  0  0  0  0
 60 32  1  0  0  0  0
 61 60  2  0  0  0  0
 25 61  1  0  0  0  0
 62 22  1  0  0  0  0
 62 63  1  0  0  0  0
 63 64  1  0  0  0  0
 63 65  2  0  0  0  0
 63 66  2  0  0  0  0
 67 62  2  0  0  0  0
 19 67  1  0  0  0  0
 68 17  1  0  0  0  0
 69 68  2  0  0  0  0
 69 70  1  0  0  0  0
 70 71  1  0  0  0  0
 71 72  1  0  0  0  0
 70 73  1  0  0  0  0
 73 74  1  0  0  0  0
 75 69  1  0  0  0  0
 15 75  2  0  0  0  0
 76 13  1  0  0  0  0
  5 76  2  0  0  0  0
M  END
> <RowID>
1693

> <Original_SMILES>
[Na+].[Na+].[Na+].[Na+].[Na+].[Na+].CCN(CC)C1=NC(NC2C=C(C=CC=2S([O-])(=O)=O)S([O-])(=O)=O)=NC(NC2=CC(=C(C=CC3C=CC(=CC=3S([O-])(=O)=O)NC3N=C(NC4C=C(C=CC=4S([O-])(=O)=O)S([O-])(=O)=O)N=C(N=3)N(CC)CC)C=C2)S([O-])(=O)=O)=N1

> <Canonical_QSARr>
CCN(CC)C1=NC(NC2C=C(C(C=CC3C=CC(=CC=3S(O)(=O)=O)NC3=NC(=NC(NC4C=C(C=CC=4S(O)(=O)=O)S(O)(=O)=O)=N3)N(CC)CC)=CC=2)S(O)(=O)=O)=NC(NC2C=C(C=CC=2S(O)(=O)=O)S(O)(=O)=O)=N1

> <InChI_Code_QSARr>
InChI=1S/C40H44N12O18S6/c1-5-51(6-2)39-47-35(45-37(49-39)43-29-21-27(71(53,54)55)15-17-31(29)73(59,60)61)41-25-13-11-23(33(19-25)75(65,66)67)9-10-24-12-14-26(20-34(24)76(68,69)70)42-36-46-38(50-40(48-36)52(7-3)8-4)44-30-22-28(72(56,57)58)16-18-32(30)74(62,63)64/h9-22H,5-8H2,1-4H3,(H,53,54,55)(H,56,57,58)(H,59,60,61)(H,62,63,64)(H,65,66,67)(H,68,69,70)(H2,41,43,45,47,49)(H2,42,44,46,48,50)

> <InChI Key_QSARr>
HVAQQSVRRRNRFN-UHFFFAOYSA-N

> <Salt_Solvent>
[Na+]

> <Salt_Solvent_ID>
110

> <Number of connected components>
7

$$$$
Molecule_1694
  Mrv2316 01072400032D          

 20 19  0  0  0  0            999 V2000
    9.1855    6.1283    0.0000 C   0  0  0  0  0  0  0  0  0  0  0  0
    9.9000    5.7158    0.0000 C   0  0  0  0  0  0  0  0  0  0  0  0
   10.6145    6.1283    0.0000 C   0  0  0  0  0  0  0  0  0  0  0  0
   11.3289    5.7158    0.0000 C   0  0  0  0  0  0  0  0  0  0  0  0
   12.0434    6.1283    0.0000 C   0  0  0  0  0  0  0  0  0  0  0  0
   12.7579    5.7158    0.0000 C   0  0  0  0  0  0  0  0  0  0  0  0
   13.4724    6.1283    0.0000 C   0  0  0  0  0  0  0  0  0  0  0  0
   14.1868    5.7158    0.0000 C   0  0  0  0  0  0  0  0  0  0  0  0
   14.9013    6.1283    0.0000 C   0  0  0  0  0  0  0  0  0  0  0  0
   15.6158    5.7158    0.0000 C   0  0  0  0  0  0  0  0  0  0  0  0
   16.3302    6.1283    0.0000 C   0  0  0  0  0  0  0  0  0  0  0  0
   17.0447    5.7158    0.0000 C   0  0  0  0  0  0  0  0  0  0  0  0
   17.0447    4.8908    0.0000 O   0  0  0  0  0  0  0  0  0  0  0  0
   17.7592    6.1283    0.0000 O   0  0  0  0  0  0  0  0  0  0  0  0
   18.4736    5.7158    0.0000 C   0  0  0  0  0  0  0  0  0  0  0  0
   19.1881    6.1283    0.0000 C   0  0  0  0  0  0  0  0  0  0  0  0
   19.9026    5.7158    0.0000 C   0  0  0  0  0  0  0  0  0  0  0  0
   20.6171    6.1283    0.0000 C   0  0  0  0  0  0  0  0  0  0  0  0
   21.3315    5.7158    0.0000 C   0  0  0  0  0  0  0  0  0  0  0  0
   22.0460    6.1283    0.0000 C   0  0  0  0  0  0  0  0  0  0  0  0
  1  2  1  0  0  0  0
  2  3  1  0  0  0  0
  3  4  1  0  0  0  0
  4  5  1  0  0  0  0
  5  6  1  0  0  0  0
  6  7  1  0  0  0  0
  7  8  1  0  0  0  0
  8  9  1  0  0  0  0
  9 10  1  0  0  0  0
 10 11  1  0  0  0  0
 11 12  1  0  0  0  0
 12 13  2  0  0  0  0
 12 14  1  0  0  0  0
 14 15  1  0  0  0  0
 15 16  1  0  0  0  0
 16 17  1  0  0  0  0
 17 18  1  0  0  0  0
 18 19  1  0  0  0  0
 19 20  1  0  0  0  0
M  END
> <RowID>
1694

> <Original_SMILES>
CCCCCCCCCCCC(=O)OCCCCCC

> <Canonical_QSARr>
CCCCCCCCCCCC(=O)OCCCCCC

> <InChI_Code_QSARr>
InChI=1S/C18H36O2/c1-3-5-7-9-10-11-12-13-14-16-18(19)20-17-15-8-6-4-2/h3-17H2,1-2H3

> <InChI Key_QSARr>
CMBYOWLFQAFZCP-UHFFFAOYSA-N

> <Salt_Solvent>


> <Salt_Solvent_ID>
0

> <Number of connected components>
1

$$$$
Molecule_1696
  Mrv2316 01072400032D          

 16 15  0  0  0  0            999 V2000
    6.7105    4.6993    0.0000 C   0  0  0  0  0  0  0  0  0  0  0  0
    7.4250    4.2868    0.0000 C   0  0  0  0  0  0  0  0  0  0  0  0
    8.1395    4.6993    0.0000 C   0  0  0  0  0  0  0  0  0  0  0  0
    8.8539    4.2868    0.0000 C   0  0  0  0  0  0  0  0  0  0  0  0
    9.5684    4.6993    0.0000 C   0  0  0  0  0  0  0  0  0  0  0  0
   10.2829    4.2868    0.0000 C   0  0  0  0  0  0  0  0  0  0  0  0
   10.9974    4.6993    0.0000 C   0  0  0  0  0  0  0  0  0  0  0  0
   11.7118    4.2868    0.0000 C   0  0  0  0  0  0  0  0  0  0  0  0
   12.4263    4.6993    0.0000 C   0  0  0  0  0  0  0  0  0  0  0  0
   12.4263    5.5243    0.0000 C   0  0  0  0  0  0  0  0  0  0  0  0
   13.1408    4.2868    0.0000 C   0  0  0  0  0  0  0  0  0  0  0  0
   13.8552    4.6993    0.0000 C   0  0  0  0  0  0  0  0  0  0  0  0
   14.5697    4.2868    0.0000 C   0  0  0  0  0  0  0  0  0  0  0  0
   15.2842    4.6993    0.0000 C   0  0  0  0  0  0  0  0  0  0  0  0
   15.9987    4.2868    0.0000 C   0  0  0  0  0  0  0  0  0  0  0  0
   16.7131    4.6993    0.0000 C   0  0  0  0  0  0  0  0  0  0  0  0
  1  2  1  0  0  0  0
  2  3  1  0  0  0  0
  3  4  1  0  0  0  0
  4  5  1  0  0  0  0
  5  6  1  0  0  0  0
  6  7  1  0  0  0  0
  7  8  1  0  0  0  0
  8  9  1  0  0  0  0
  9 10  2  0  0  0  0
  9 11  1  0  0  0  0
 11 12  1  0  0  0  0
 12 13  1  0  0  0  0
 13 14  1  0  0  0  0
 14 15  1  0  0  0  0
 15 16  1  0  0  0  0
M  END
> <RowID>
1696

> <Original_SMILES>
CCCCCCCCC(=C)CCCCCC

> <Canonical_QSARr>
CCCCCCCCC(=C)CCCCCC

> <InChI_Code_QSARr>
InChI=1S/C16H32/c1-4-6-8-10-11-13-15-16(3)14-12-9-7-5-2/h3-15H2,1-2H3

> <InChI Key_QSARr>
ALLHOOZJEFGTPW-UHFFFAOYSA-N

> <Salt_Solvent>


> <Salt_Solvent_ID>
0

> <Number of connected components>
1

$$$$
Molecule_1698
  Mrv2316 01072400032D          

 36 39  0  0  0  0            999 V2000
    0.3340   -5.1326    0.0000 C   0  0  0  0  0  0  0  0  0  0  0  0
    0.3340   -4.3076    0.0000 C   0  0  0  0  0  0  0  0  0  0  0  0
    1.0484   -3.8951    0.0000 C   0  0  0  0  0  0  0  0  0  0  0  0
    1.7629   -4.3076    0.0000 C   0  0  0  0  0  0  0  0  0  0  0  0
    2.4774   -3.8951    0.0000 C   0  0  0  0  0  0  0  0  0  0  0  0
    2.4774   -3.0701    0.0000 O   0  0  0  0  0  0  0  0  0  0  0  0
    3.1919   -4.3076    0.0000 O   0  0  0  0  0  0  0  0  0  0  0  0
    3.9063   -3.8951    0.0000 C   0  0  0  0  0  0  0  0  0  0  0  0
   -0.3805   -3.8951    0.0000 C   0  0  0  0  0  0  0  0  0  0  0  0
   -0.4667   -3.0746    0.0000 C   0  0  0  0  0  0  0  0  0  0  0  0
   -1.2737   -2.9031    0.0000 C   0  0  0  0  0  0  0  0  0  0  0  0
   -1.6862   -3.6175    0.0000 C   0  0  0  0  0  0  0  0  0  0  0  0
   -2.4932   -3.7891    0.0000 C   0  0  0  0  0  0  0  0  0  0  0  0
   -2.7481   -4.5737    0.0000 C   0  0  0  0  0  0  0  0  0  0  0  0
   -2.1961   -5.1868    0.0000 C   0  0  0  0  0  0  0  0  0  0  0  0
   -1.3891   -5.0153    0.0000 C   0  0  0  0  0  0  0  0  0  0  0  0
   -0.8371   -5.6283    0.0000 O   0  0  0  0  0  0  0  0  0  0  0  0
   -1.1342   -4.2306    0.0000 C   0  0  0  0  0  0  0  0  0  0  0  0
   -0.5211   -4.7827    0.0000 C   0  0  0  0  0  0  0  0  0  0  0  0
   -3.5551   -4.7452    0.0000 C   0  0  0  0  0  0  0  0  0  0  0  0
   -3.0031   -5.3583    0.0000 C   0  0  0  0  0  0  0  0  0  0  0  0
   -3.8100   -5.5298    0.0000 C   0  0  0  0  0  0  0  0  0  0  0  0
   -4.6170   -5.7014    0.0000 C   0  0  0  0  0  0  0  0  0  0  0  0
   -5.1690   -5.0883    0.0000 C   0  0  0  0  0  0  0  0  0  0  0  0
   -4.9141   -4.3036    0.0000 C   0  0  0  0  0  0  0  0  0  0  0  0
   -4.1071   -4.1321    0.0000 C   0  0  0  0  0  0  0  0  0  0  0  0
   -3.8522   -3.3475    0.0000 C   0  0  0  0  0  0  0  0  0  0  0  0
   -3.0452   -3.1760    0.0000 C   0  0  0  0  0  0  0  0  0  0  0  0
   -2.7903   -2.3914    0.0000 O   0  0  0  0  0  0  0  0  0  0  0  0
   -3.3423   -1.7783    0.0000 C   0  0  0  0  0  0  0  0  0  0  0  0
   -4.1493   -1.9498    0.0000 C   0  0  0  0  0  0  0  0  0  0  0  0
   -3.0874   -0.9936    0.0000 O   0  0  0  0  0  0  0  0  0  0  0  0
   -5.9760   -5.2598    0.0000 O   0  0  0  0  0  0  0  0  0  0  0  0
   -6.5280   -4.6467    0.0000 C   0  0  0  0  0  0  0  0  0  0  0  0
   -7.3350   -4.8182    0.0000 C   0  0  0  0  0  0  0  0  0  0  0  0
   -6.2731   -3.8621    0.0000 O   0  0  0  0  0  0  0  0  0  0  0  0
  1  2  1  0  0  0  0
  2  3  1  0  0  0  0
  3  4  1  0  0  0  0
  4  5  1  0  0  0  0
  5  6  2  0  0  0  0
  5  7  1  0  0  0  0
  7  8  1  0  0  0  0
  2  9  1  0  0  0  0
 10  9  1  0  0  0  0
 11 10  1  0  0  0  0
 12 11  1  0  0  0  0
 12 13  1  0  0  0  0
 14 13  1  0  0  0  0
 14 15  1  0  0  0  0
 15 16  1  0  0  0  0
 16 17  1  0  0  0  0
 16 18  1  0  0  0  0
  9 18  1  0  0  0  0
 18 12  1  0  0  0  0
 18 19  1  0  0  0  0
 20 14  1  0  0  0  0
 20 21  1  0  0  0  0
 20 22  1  0  0  0  0
 22 23  1  0  0  0  0
 23 24  1  0  0  0  0
 24 25  1  0  0  0  0
 25 26  1  0  0  0  0
 26 20  1  0  0  0  0
 27 26  1  0  0  0  0
 28 27  1  0  0  0  0
 13 28  1  0  0  0  0
 28 29  1  0  0  0  0
 29 30  1  0  0  0  0
 30 31  1  0  0  0  0
 30 32  2  0  0  0  0
 24 33  1  0  0  0  0
 33 34  1  0  0  0  0
 34 35  1  0  0  0  0
 34 36  2  0  0  0  0
M  END
> <RowID>
1698

> <Original_SMILES>
CC(CCC(=O)OC)C1CCC2C3C(CC(O)C21C)C1(C)CCC(CC1CC3OC(C)=O)OC(C)=O

> <Canonical_QSARr>
CC(CCC(=O)OC)C1CCC2C3C(CC(O)C21C)C1(C)CCC(CC1CC3OC(C)=O)OC(C)=O

> <InChI_Code_QSARr>
InChI=1S/C29H46O7/c1-16(7-10-26(33)34-6)21-8-9-22-27-23(15-25(32)29(21,22)5)28(4)12-11-20(35-17(2)30)13-19(28)14-24(27)36-18(3)31/h16,19-25,27,32H,7-15H2,1-6H3

> <InChI Key_QSARr>
VKXXPYARELKQOY-UHFFFAOYSA-N

> <Salt_Solvent>


> <Salt_Solvent_ID>
0

> <Number of connected components>
1

$$$$
Molecule_1699
  Mrv2316 01072400032D          

 64 71  0  0  0  0            999 V2000
    0.6592   -0.0957    0.0000 O   0  0  0  0  0  0  0  0  0  0  0  0
    1.0717    0.6188    0.0000 S   0  0  0  0  0  0  0  0  0  0  0  0
    0.3573    1.0313    0.0000 O   0  0  0  0  0  0  0  0  0  0  0  0
    1.4842    1.3333    0.0000 O   0  0  0  0  0  0  0  0  0  0  0  0
    1.7862    0.2063    0.0000 C   0  0  0  0  0  0  0  0  0  0  0  0
    2.5007    0.6188    0.0000 C   0  0  0  0  0  0  0  0  0  0  0  0
    2.5007    1.4438    0.0000 C   0  0  0  0  0  0  0  0  0  0  0  0
    1.7862    1.8563    0.0000 C   0  0  0  0  0  0  0  0  0  0  0  0
    1.7862    2.6813    0.0000 C   0  0  0  0  0  0  0  0  0  0  0  0
    2.5007    3.0938    0.0000 C   0  0  0  0  0  0  0  0  0  0  0  0
    3.2151    2.6813    0.0000 S   0  0  0  0  0  0  0  0  0  0  0  0
    3.9296    2.2688    0.0000 O   0  0  0  0  0  0  0  0  0  0  0  0
    3.6276    3.3958    0.0000 O   0  0  0  0  0  0  0  0  0  0  0  0
    2.8026    1.9668    0.0000 O   0  0  0  0  0  0  0  0  0  0  0  0
    2.5007    3.9188    0.0000 C   0  0  0  0  0  0  0  0  0  0  0  0
    1.7862    4.3313    0.0000 C   0  0  0  0  0  0  0  0  0  0  0  0
    1.7862    5.1563    0.0000 N   0  0  0  0  0  0  0  0  0  0  0  0
    1.0717    5.5688    0.0000 C   0  0  0  0  0  0  0  0  0  0  0  0
    1.0717    6.3938    0.0000 N   0  0  0  0  0  0  0  0  0  0  0  0
    0.3573    6.8063    0.0000 C   0  0  0  0  0  0  0  0  0  0  0  0
    0.3573    7.6313    0.0000 N   0  0  0  0  0  0  0  0  0  0  0  0
   -0.3572    8.0438    0.0000 C   0  0  0  0  0  0  0  0  0  0  0  0
   -0.3572    8.8688    0.0000 C   0  0  0  0  0  0  0  0  0  0  0  0
   -1.0717    9.2813    0.0000 C   0  0  0  0  0  0  0  0  0  0  0  0
   -1.7862    8.8688    0.0000 C   0  0  0  0  0  0  0  0  0  0  0  0
   -1.7862    8.0438    0.0000 C   0  0  0  0  0  0  0  0  0  0  0  0
   -1.0717    7.6313    0.0000 C   0  0  0  0  0  0  0  0  0  0  0  0
   -0.3572    6.3938    0.0000 N   0  0  0  0  0  0  0  0  0  0  0  0
   -0.3572    5.5688    0.0000 C   0  0  0  0  0  0  0  0  0  0  0  0
   -1.0717    5.1563    0.0000 N   0  0  0  0  0  0  0  0  0  0  0  0
   -1.0717    4.3313    0.0000 C   0  0  0  0  0  0  0  0  0  0  0  0
   -1.7862    3.9188    0.0000 C   0  0  0  0  0  0  0  0  0  0  0  0
   -1.7862    3.0938    0.0000 C   0  0  0  0  0  0  0  0  0  0  0  0
   -1.0717    2.6813    0.0000 C   0  0  0  0  0  0  0  0  0  0  0  0
   -0.3572    3.0938    0.0000 C   0  0  0  0  0  0  0  0  0  0  0  0
   -0.3572    3.9188    0.0000 C   0  0  0  0  0  0  0  0  0  0  0  0
    0.3573    5.1563    0.0000 N   0  0  0  0  0  0  0  0  0  0  0  0
    1.0717    3.9188    0.0000 C   0  0  0  0  0  0  0  0  0  0  0  0
    1.0717    3.0938    0.0000 C   0  0  0  0  0  0  0  0  0  0  0  0
    3.2151    0.2063    0.0000 C   0  0  0  0  0  0  0  0  0  0  0  0
    3.2151   -0.6187    0.0000 C   0  0  0  0  0  0  0  0  0  0  0  0
    2.5007   -1.0312    0.0000 C   0  0  0  0  0  0  0  0  0  0  0  0
    2.5007   -1.8562    0.0000 N   0  0  0  0  0  0  0  0  0  0  0  0
    3.2151   -2.2687    0.0000 C   0  0  0  0  0  0  0  0  0  0  0  0
    3.2151   -3.0937    0.0000 N   0  0  0  0  0  0  0  0  0  0  0  0
    3.9296   -3.5062    0.0000 C   0  0  0  0  0  0  0  0  0  0  0  0
    3.9296   -4.3312    0.0000 N   0  0  0  0  0  0  0  0  0  0  0  0
    4.6441   -4.7437    0.0000 C   0  0  0  0  0  0  0  0  0  0  0  0
    4.6441   -5.5687    0.0000 C   0  0  0  0  0  0  0  0  0  0  0  0
    5.3586   -5.9812    0.0000 C   0  0  0  0  0  0  0  0  0  0  0  0
    6.0730   -5.5687    0.0000 C   0  0  0  0  0  0  0  0  0  0  0  0
    6.0730   -4.7437    0.0000 C   0  0  0  0  0  0  0  0  0  0  0  0
    5.3586   -4.3312    0.0000 C   0  0  0  0  0  0  0  0  0  0  0  0
    4.6441   -3.0937    0.0000 N   0  0  0  0  0  0  0  0  0  0  0  0
    4.6441   -2.2687    0.0000 C   0  0  0  0  0  0  0  0  0  0  0  0
    5.3586   -1.8562    0.0000 N   0  0  0  0  0  0  0  0  0  0  0  0
    5.3586   -1.0312    0.0000 C   0  0  0  0  0  0  0  0  0  0  0  0
    6.0730   -0.6187    0.0000 C   0  0  0  0  0  0  0  0  0  0  0  0
    6.0730    0.2063    0.0000 C   0  0  0  0  0  0  0  0  0  0  0  0
    5.3586    0.6188    0.0000 C   0  0  0  0  0  0  0  0  0  0  0  0
    4.6441    0.2063    0.0000 C   0  0  0  0  0  0  0  0  0  0  0  0
    4.6441   -0.6187    0.0000 C   0  0  0  0  0  0  0  0  0  0  0  0
    3.9296   -1.8562    0.0000 N   0  0  0  0  0  0  0  0  0  0  0  0
    1.7862   -0.6187    0.0000 C   0  0  0  0  0  0  0  0  0  0  0  0
  1  2  1  0  0  0  0
  2  3  2  0  0  0  0
  2  4  2  0  0  0  0
  2  5  1  0  0  0  0
  6  5  2  0  0  0  0
  7  6  1  4  0  0  0
  7  8  2  0  0  0  0
  8  9  1  0  0  0  0
 10  9  2  0  0  0  0
 10 11  1  0  0  0  0
 11 12  1  0  0  0  0
 11 13  2  0  0  0  0
 11 14  2  0  0  0  0
 15 10  1  0  0  0  0
 16 15  2  0  0  0  0
 16 17  1  0  0  0  0
 17 18  1  0  0  0  0
 19 18  2  0  0  0  0
 20 19  1  0  0  0  0
 20 21  1  0  0  0  0
 21 22  1  0  0  0  0
 23 22  2  0  0  0  0
 24 23  1  0  0  0  0
 25 24  2  0  0  0  0
 26 25  1  0  0  0  0
 27 26  2  0  0  0  0
 22 27  1  0  0  0  0
 28 20  2  0  0  0  0
 29 28  1  0  0  0  0
 29 30  1  0  0  0  0
 30 31  1  0  0  0  0
 32 31  2  0  0  0  0
 33 32  1  0  0  0  0
 34 33  2  0  0  0  0
 35 34  1  0  0  0  0
 36 35  2  0  0  0  0
 31 36  1  0  0  0  0
 37 29  2  0  0  0  0
 18 37  1  0  0  0  0
 38 16  1  0  0  0  0
 39 38  2  0  0  0  0
  9 39  1  0  0  0  0
 40  6  1  0  0  0  0
 41 40  2  0  0  0  0
 42 41  1  0  0  0  0
 42 43  1  0  0  0  0
 43 44  1  0  0  0  0
 45 44  2  0  0  0  0
 46 45  1  0  0  0  0
 46 47  1  0  0  0  0
 47 48  1  0  0  0  0
 49 48  2  0  0  0  0
 50 49  1  0  0  0  0
 51 50  2  0  0  0  0
 52 51  1  0  0  0  0
 53 52  2  0  0  0  0
 48 53  1  0  0  0  0
 54 46  2  0  0  0  0
 55 54  1  0  0  0  0
 55 56  1  0  0  0  0
 56 57  1  0  0  0  0
 58 57  2  0  0  0  0
 59 58  1  0  0  0  0
 60 59  2  0  0  0  0
 61 60  1  0  0  0  0
 62 61  2  0  0  0  0
 57 62  1  0  0  0  0
 63 55  2  0  0  0  0
 44 63  1  0  0  0  0
 64 42  2  0  0  0  0
  5 64  1  0  0  0  0
M  END
> <RowID>
1699

> <Original_SMILES>
[Na+].[Na+].[O-]S(=O)(=O)C1C=C(C=CC=1C=CC1C=CC(=CC=1S([O-])(=O)=O)NC1=NC(NC2C=CC=CC=2)=NC(NC2C=CC=CC=2)=N1)NC1=NC(NC2C=CC=CC=2)=NC(NC2C=CC=CC=2)=N1

> <Canonical_QSARr>
OS(=O)(=O)C1C=C(C=CC=1C=CC1C=CC(=CC=1S(O)(=O)=O)NC1=NC(NC2C=CC=CC=2)=NC(NC2C=CC=CC=2)=N1)NC1=NC(NC2C=CC=CC=2)=NC(NC2C=CC=CC=2)=N1

> <InChI_Code_QSARr>
InChI=1S/C44H36N12O6S2/c57-63(58,59)37-27-35(49-43-53-39(45-31-13-5-1-6-14-31)51-40(54-43)46-32-15-7-2-8-16-32)25-23-29(37)21-22-30-24-26-36(28-38(30)64(60,61)62)50-44-55-41(47-33-17-9-3-10-18-33)52-42(56-44)48-34-19-11-4-12-20-34/h1-28H,(H,57,58,59)(H,60,61,62)(H3,45,46,49,51,53,54)(H3,47,48,50,52,55,56)

> <InChI Key_QSARr>
HRHCYUBSBRXMIN-UHFFFAOYSA-N

> <Salt_Solvent>
[Na+]

> <Salt_Solvent_ID>
110

> <Number of connected components>
3

$$$$
Molecule_1701
  Mrv2316 01072400032D          

 36 35  0  0  0  0            999 V2000
    2.2323   16.1388    0.0000 C   0  0  0  0  0  0  0  0  0  0  0  0
    2.2323   15.3138    0.0000 C   0  0  0  0  0  0  0  0  0  0  0  0
    2.9467   14.9013    0.0000 C   0  0  0  0  0  0  0  0  0  0  0  0
    2.9467   14.0763    0.0000 C   0  0  0  0  0  0  0  0  0  0  0  0
    3.6612   13.6638    0.0000 C   0  0  0  0  0  0  0  0  0  0  0  0
    3.6612   12.8388    0.0000 C   0  0  0  0  0  0  0  0  0  0  0  0
    4.3757   12.4263    0.0000 C   0  0  0  0  0  0  0  0  0  0  0  0
    4.3757   11.6013    0.0000 C   0  0  0  0  0  0  0  0  0  0  0  0
    5.0901   11.1888    0.0000 C   0  0  0  0  0  0  0  0  0  0  0  0
    5.0901   10.3638    0.0000 C   0  0  0  0  0  0  0  0  0  0  0  0
    5.8046    9.9513    0.0000 C   0  0  0  0  0  0  0  0  0  0  0  0
    5.8046    9.1263    0.0000 C   0  0  0  0  0  0  0  0  0  0  0  0
    6.5191    8.7138    0.0000 C   0  0  0  0  0  0  0  0  0  0  0  0
    6.5191    7.8888    0.0000 C   0  0  0  0  0  0  0  0  0  0  0  0
    7.2336    7.4763    0.0000 O   0  0  0  0  0  0  0  0  0  0  0  0
    7.2336    6.6513    0.0000 C   0  0  0  0  0  0  0  0  0  0  0  0
    6.5191    6.2388    0.0000 O   0  0  0  0  0  0  0  0  0  0  0  0
    7.9480    6.2388    0.0000 C   0  0  0  0  0  0  0  0  0  0  0  0
    7.9480    5.4138    0.0000 C   0  0  0  0  0  0  0  0  0  0  0  0
    8.6625    5.0013    0.0000 C   0  0  0  0  0  0  0  0  0  0  0  0
    8.6625    4.1763    0.0000 O   0  0  0  0  0  0  0  0  0  0  0  0
    9.3770    5.4138    0.0000 O   0  0  0  0  0  0  0  0  0  0  0  0
   10.0914    5.0013    0.0000 C   0  0  0  0  0  0  0  0  0  0  0  0
   10.8059    5.4138    0.0000 C   0  0  0  0  0  0  0  0  0  0  0  0
   11.5204    5.0013    0.0000 C   0  0  0  0  0  0  0  0  0  0  0  0
   12.2349    5.4138    0.0000 C   0  0  0  0  0  0  0  0  0  0  0  0
   12.9493    5.0013    0.0000 C   0  0  0  0  0  0  0  0  0  0  0  0
   13.6638    5.4138    0.0000 C   0  0  0  0  0  0  0  0  0  0  0  0
   14.3783    5.0013    0.0000 C   0  0  0  0  0  0  0  0  0  0  0  0
   15.0927    5.4138    0.0000 C   0  0  0  0  0  0  0  0  0  0  0  0
   15.8072    5.0013    0.0000 C   0  0  0  0  0  0  0  0  0  0  0  0
   16.5217    5.4138    0.0000 C   0  0  0  0  0  0  0  0  0  0  0  0
   17.2362    5.0013    0.0000 C   0  0  0  0  0  0  0  0  0  0  0  0
   17.9506    5.4138    0.0000 C   0  0  0  0  0  0  0  0  0  0  0  0
   18.6651    5.0013    0.0000 C   0  0  0  0  0  0  0  0  0  0  0  0
   19.3796    5.4138    0.0000 C   0  0  0  0  0  0  0  0  0  0  0  0
  1  2  1  0  0  0  0
  2  3  1  0  0  0  0
  3  4  1  0  0  0  0
  4  5  1  0  0  0  0
  5  6  1  0  0  0  0
  6  7  1  0  0  0  0
  7  8  1  0  0  0  0
  8  9  1  0  0  0  0
  9 10  1  0  0  0  0
 10 11  1  0  0  0  0
 11 12  1  0  0  0  0
 12 13  1  0  0  0  0
 13 14  1  0  0  0  0
 14 15  1  0  0  0  0
 15 16  1  0  0  0  0
 16 17  2  0  0  0  0
 18 16  1  4  0  0  0
 18 19  2  0  0  0  0
 19 20  1  0  0  0  0
 20 21  2  0  0  0  0
 20 22  1  0  0  0  0
 22 23  1  0  0  0  0
 23 24  1  0  0  0  0
 24 25  1  0  0  0  0
 25 26  1  0  0  0  0
 26 27  1  0  0  0  0
 27 28  1  0  0  0  0
 28 29  1  0  0  0  0
 29 30  1  0  0  0  0
 30 31  1  0  0  0  0
 31 32  1  0  0  0  0
 32 33  1  0  0  0  0
 33 34  1  0  0  0  0
 34 35  1  0  0  0  0
 35 36  1  0  0  0  0
M  END
> <RowID>
1701

> <Original_SMILES>
CCCCCCCCCCCCCCOC(=O)C=CC(=O)OCCCCCCCCCCCCCC

> <Canonical_QSARr>
CCCCCCCCCCCCCCOC(=O)C=CC(=O)OCCCCCCCCCCCCCC

> <InChI_Code_QSARr>
InChI=1S/C32H60O4/c1-3-5-7-9-11-13-15-17-19-21-23-25-29-35-31(33)27-28-32(34)36-30-26-24-22-20-18-16-14-12-10-8-6-4-2/h27-28H,3-26,29-30H2,1-2H3

> <InChI Key_QSARr>
DYVHFPDDBMMBAX-UHFFFAOYSA-N

> <Salt_Solvent>


> <Salt_Solvent_ID>
0

> <Number of connected components>
1

$$$$
Molecule_1702
  Mrv2316 01072400032D          

 39 44  0  0  0  0            999 V2000
    6.1302   -4.9645    0.0000 C   0  0  0  0  0  0  0  0  0  0  0  0
    5.7944   -4.2110    0.0000 C   0  0  0  0  0  0  0  0  0  0  0  0
    4.9739   -4.1250    0.0000 C   0  0  0  0  0  0  0  0  0  0  0  0
    4.6381   -3.3714    0.0000 C   0  0  0  0  0  0  0  0  0  0  0  0
    3.8176   -3.2854    0.0000 O   0  0  0  0  0  0  0  0  0  0  0  0
    3.4819   -2.5318    0.0000 C   0  0  0  0  0  0  0  0  0  0  0  0
    2.6614   -2.4458    0.0000 C   0  0  0  0  0  0  0  0  0  0  0  0
    2.3256   -1.6922    0.0000 C   0  0  0  0  0  0  0  0  0  0  0  0
    1.5051   -1.6062    0.0000 N   0  0  0  0  0  0  0  0  0  0  0  0
    1.1693   -0.8526    0.0000 C   0  0  0  0  0  0  0  0  0  0  0  0
    0.3488   -0.7667    0.0000 C   0  0  0  0  0  0  0  0  0  0  0  0
    0.0130   -0.0131    0.0000 C   0  0  0  0  0  0  0  0  0  0  0  0
   -0.8075    0.0729    0.0000 C   0  0  0  0  0  0  0  0  0  0  0  0
    0.4978    0.6545    0.0000 C   0  0  0  0  0  0  0  0  0  0  0  0
    1.0204   -2.2738    0.0000 C   0  0  0  0  0  0  0  0  0  0  0  0
    0.1998   -2.1878    0.0000 C   0  0  0  0  0  0  0  0  0  0  0  0
    2.8103   -1.0246    0.0000 C   0  0  0  0  0  0  0  0  0  0  0  0
    3.6308   -1.1106    0.0000 C   0  0  0  0  0  0  0  0  0  0  0  0
    3.9666   -1.8642    0.0000 C   0  0  0  0  0  0  0  0  0  0  0  0
    4.7871   -1.9502    0.0000 C   0  0  0  0  0  0  0  0  0  0  0  0
    4.5319   -1.1657    0.0000 O   0  0  0  0  0  0  0  0  0  0  0  0
    5.1992   -0.6806    0.0000 C   0  0  0  0  0  0  0  0  0  0  0  0
    5.1990    0.1444    0.0000 O   0  0  0  0  0  0  0  0  0  0  0  0
    5.8668   -1.1653    0.0000 C   0  0  0  0  0  0  0  0  0  0  0  0
    6.6737   -0.9935    0.0000 C   0  0  0  0  0  0  0  0  0  0  0  0
    7.2259   -1.6065    0.0000 C   0  0  0  0  0  0  0  0  0  0  0  0
    6.9712   -2.3912    0.0000 C   0  0  0  0  0  0  0  0  0  0  0  0
    6.1643   -2.5629    0.0000 C   0  0  0  0  0  0  0  0  0  0  0  0
    5.6121   -1.9500    0.0000 C   0  0  0  0  0  0  0  0  0  0  0  0
    5.1229   -2.7038    0.0000 C   0  0  0  0  0  0  0  0  0  0  0  0
    5.9434   -2.7898    0.0000 C   0  0  0  0  0  0  0  0  0  0  0  0
    6.2792   -3.5434    0.0000 C   0  0  0  0  0  0  0  0  0  0  0  0
    7.0997   -3.6294    0.0000 N   0  0  0  0  0  0  0  0  0  0  0  0
    7.4354   -4.3830    0.0000 C   0  0  0  0  0  0  0  0  0  0  0  0
    6.9507   -5.0505    0.0000 C   0  0  0  0  0  0  0  0  0  0  0  0
    7.2865   -5.8041    0.0000 C   0  0  0  0  0  0  0  0  0  0  0  0
    8.1070   -5.8901    0.0000 C   0  0  0  0  0  0  0  0  0  0  0  0
    8.5917   -5.2225    0.0000 C   0  0  0  0  0  0  0  0  0  0  0  0
    8.2559   -4.4690    0.0000 C   0  0  0  0  0  0  0  0  0  0  0  0
  1  2  1  0  0  0  0
  3  2  2  0  0  0  0
  4  3  1  0  0  0  0
  4  5  1  0  0  0  0
  5  6  1  0  0  0  0
  7  6  2  0  0  0  0
  8  7  1  0  0  0  0
  8  9  1  0  0  0  0
  9 10  1  0  0  0  0
 10 11  1  0  0  0  0
 11 12  1  0  0  0  0
 12 13  1  0  0  0  0
 12 14  1  0  0  0  0
  9 15  1  0  0  0  0
 15 16  1  0  0  0  0
 17  8  2  0  0  0  0
 18 17  1  0  0  0  0
 19 18  2  0  0  0  0
  6 19  1  0  0  0  0
 19 20  1  0  0  0  0
 21 20  1  0  0  0  0
 22 21  1  0  0  0  0
 22 23  2  0  0  0  0
 24 22  1  0  0  0  0
 24 25  2  0  0  0  0
 25 26  1  0  0  0  0
 26 27  2  0  0  0  0
 27 28  1  0  0  0  0
 28 29  2  0  0  0  0
 20 29  1  0  0  0  0
 29 24  1  0  0  0  0
 20 30  1  0  0  0  0
 30  4  2  0  0  0  0
 31 30  1  0  0  0  0
 32 31  2  0  0  0  0
  2 32  1  0  0  0  0
 32 33  1  0  0  0  0
 33 34  1  0  0  0  0
 35 34  1  0  0  0  0
 36 35  2  0  0  0  0
 37 36  1  0  0  0  0
 38 37  2  0  0  0  0
 39 38  1  0  0  0  0
 34 39  2  0  0  0  0
M  END
> <RowID>
1702

> <Original_SMILES>
CC1=CC2OC3=CC(=CC=C3C3(OC(=O)C4=CC=CC=C34)C=2C=C1NC1C=CC=CC=1)N(CCC(C)C)CC

> <Canonical_QSARr>
CC1=CC2OC3=CC(=CC=C3C3(OC(=O)C4=CC=CC=C34)C=2C=C1NC1C=CC=CC=1)N(CCC(C)C)CC

> <InChI_Code_QSARr>
InChI=1S/C34H34N2O3/c1-5-36(18-17-22(2)3)25-15-16-28-32(20-25)38-31-19-23(4)30(35-24-11-7-6-8-12-24)21-29(31)34(28)27-14-10-9-13-26(27)33(37)39-34/h6-16,19-22,35H,5,17-18H2,1-4H3

> <InChI Key_QSARr>
HUSIBQLZEMMTCQ-UHFFFAOYSA-N

> <Salt_Solvent>


> <Salt_Solvent_ID>
0

> <Number of connected components>
1

$$$$
Molecule_1703
  Mrv2316 01072400032D          

 47 46  0  0  0  0            999 V2000
   25.2804   15.4191    0.0000 C   0  0  0  0  0  0  0  0  0  0  0  0
   25.9949   15.0066    0.0000 C   0  0  0  0  0  0  0  0  0  0  0  0
   26.7093   15.4191    0.0000 C   0  0  0  0  0  0  0  0  0  0  0  0
   27.4238   15.0066    0.0000 C   0  0  0  0  0  0  0  0  0  0  0  0
   28.1383   15.4191    0.0000 C   0  0  0  0  0  0  0  0  0  0  0  0
   28.8528   15.0066    0.0000 C   0  0  0  0  0  0  0  0  0  0  0  0
   29.5672   15.4191    0.0000 C   0  0  0  0  0  0  0  0  0  0  0  0
   30.2817   15.0066    0.0000 C   0  0  0  0  0  0  0  0  0  0  0  0
   30.9962   15.4191    0.0000 C   0  0  0  0  0  0  0  0  0  0  0  0
   31.7106   15.0066    0.0000 C   0  0  0  0  0  0  0  0  0  0  0  0
   32.4251   15.4191    0.0000 C   0  0  0  0  0  0  0  0  0  0  0  0
   33.1396   15.0066    0.0000 C   0  0  0  0  0  0  0  0  0  0  0  0
   33.8541   15.4191    0.0000 C   0  0  0  0  0  0  0  0  0  0  0  0
   34.5685   15.0066    0.0000 C   0  0  0  0  0  0  0  0  0  0  0  0
   35.2830   15.4191    0.0000 C   0  0  0  0  0  0  0  0  0  0  0  0
   35.9975   15.0066    0.0000 C   0  0  0  0  0  0  0  0  0  0  0  0
   36.7119   15.4191    0.0000 C   0  0  0  0  0  0  0  0  0  0  0  0
   37.4264   15.0066    0.0000 C   0  0  0  0  0  0  0  0  0  0  0  0
   38.1409   15.4191    0.0000 N   0  0  0  0  0  0  0  0  0  0  0  0
   38.8553   15.0066    0.0000 C   0  0  0  0  0  0  0  0  0  0  0  0
   38.8553   14.1816    0.0000 O   0  0  0  0  0  0  0  0  0  0  0  0
   39.5698   15.4191    0.0000 N   0  0  0  0  0  0  0  0  0  0  0  0
   40.2843   15.0066    0.0000 C   0  0  0  0  0  0  0  0  0  0  0  0
   40.9988   15.4191    0.0000 C   0  0  0  0  0  0  0  0  0  0  0  0
   41.7132   15.0066    0.0000 C   0  0  0  0  0  0  0  0  0  0  0  0
   42.4277   15.4191    0.0000 N   0  0  0  0  0  0  0  0  0  0  0  0
   43.1422   15.0066    0.0000 C   0  0  0  0  0  0  0  0  0  0  0  0
   43.1422   14.1816    0.0000 O   0  0  0  0  0  0  0  0  0  0  0  0
   43.8566   15.4191    0.0000 N   0  0  0  0  0  0  0  0  0  0  0  0
   44.5711   15.0066    0.0000 C   0  0  0  0  0  0  0  0  0  0  0  0
   45.2856   15.4191    0.0000 C   0  0  0  0  0  0  0  0  0  0  0  0
   46.0001   15.0066    0.0000 C   0  0  0  0  0  0  0  0  0  0  0  0
   46.7145   15.4191    0.0000 C   0  0  0  0  0  0  0  0  0  0  0  0
   47.4290   15.0066    0.0000 C   0  0  0  0  0  0  0  0  0  0  0  0
   48.1435   15.4191    0.0000 C   0  0  0  0  0  0  0  0  0  0  0  0
   48.8579   15.0066    0.0000 C   0  0  0  0  0  0  0  0  0  0  0  0
   49.5724   15.4191    0.0000 C   0  0  0  0  0  0  0  0  0  0  0  0
   50.2869   15.0066    0.0000 C   0  0  0  0  0  0  0  0  0  0  0  0
   51.0014   15.4191    0.0000 C   0  0  0  0  0  0  0  0  0  0  0  0
   51.7158   15.0066    0.0000 C   0  0  0  0  0  0  0  0  0  0  0  0
   52.4303   15.4191    0.0000 C   0  0  0  0  0  0  0  0  0  0  0  0
   53.1448   15.0066    0.0000 C   0  0  0  0  0  0  0  0  0  0  0  0
   53.8592   15.4191    0.0000 C   0  0  0  0  0  0  0  0  0  0  0  0
   54.5737   15.0066    0.0000 C   0  0  0  0  0  0  0  0  0  0  0  0
   55.2882   15.4191    0.0000 C   0  0  0  0  0  0  0  0  0  0  0  0
   56.0027   15.0066    0.0000 C   0  0  0  0  0  0  0  0  0  0  0  0
   56.7171   15.4191    0.0000 C   0  0  0  0  0  0  0  0  0  0  0  0
  1  2  1  0  0  0  0
  2  3  1  0  0  0  0
  3  4  1  0  0  0  0
  4  5  1  0  0  0  0
  5  6  1  0  0  0  0
  6  7  1  0  0  0  0
  7  8  1  0  0  0  0
  8  9  1  0  0  0  0
  9 10  1  0  0  0  0
 10 11  1  0  0  0  0
 11 12  1  0  0  0  0
 12 13  1  0  0  0  0
 13 14  1  0  0  0  0
 14 15  1  0  0  0  0
 15 16  1  0  0  0  0
 16 17  1  0  0  0  0
 17 18  1  0  0  0  0
 18 19  1  0  0  0  0
 19 20  1  0  0  0  0
 20 21  2  0  0  0  0
 20 22  1  0  0  0  0
 22 23  1  0  0  0  0
 23 24  1  0  0  0  0
 24 25  1  0  0  0  0
 25 26  1  0  0  0  0
 26 27  1  0  0  0  0
 27 28  2  0  0  0  0
 27 29  1  0  0  0  0
 29 30  1  0  0  0  0
 30 31  1  0  0  0  0
 31 32  1  0  0  0  0
 32 33  1  0  0  0  0
 33 34  1  0  0  0  0
 34 35  1  0  0  0  0
 35 36  1  0  0  0  0
 36 37  1  0  0  0  0
 37 38  1  0  0  0  0
 38 39  1  0  0  0  0
 39 40  1  0  0  0  0
 40 41  1  0  0  0  0
 41 42  1  0  0  0  0
 42 43  1  0  0  0  0
 43 44  1  0  0  0  0
 44 45  1  0  0  0  0
 45 46  1  0  0  0  0
 46 47  1  0  0  0  0
M  END
> <RowID>
1703

> <Original_SMILES>
CCCCCCCCCCCCCCCCCCNC(=O)NCCCNC(=O)NCCCCCCCCCCCCCCCCCC

> <Canonical_QSARr>
CCCCCCCCCCCCCCCCCCNC(=O)NCCCNC(=O)NCCCCCCCCCCCCCCCCCC

> <InChI_Code_QSARr>
InChI=1S/C41H84N4O2/c1-3-5-7-9-11-13-15-17-19-21-23-25-27-29-31-33-36-42-40(46)44-38-35-39-45-41(47)43-37-34-32-30-28-26-24-22-20-18-16-14-12-10-8-6-4-2/h3-39H2,1-2H3,(H2,42,44,46)(H2,43,45,47)

> <InChI Key_QSARr>
UZXKVMHAGOJYHP-UHFFFAOYSA-N

> <Salt_Solvent>


> <Salt_Solvent_ID>
0

> <Number of connected components>
1

$$$$
Molecule_1704
  Mrv2316 01072400032D          

 11 11  0  0  0  0            999 V2000
   -0.0000   -0.7500    0.0000 C   0  0  0  0  0  0  0  0  0  0  0  0
    0.7145   -0.3375    0.0000 C   0  0  0  0  0  0  0  0  0  0  0  0
    1.4289   -0.7500    0.0000 C   0  0  0  0  0  0  0  0  0  0  0  0
    0.7145    0.4875    0.0000 C   0  0  0  0  0  0  0  0  0  0  0  0
    1.4289    0.9000    0.0000 C   0  0  0  0  0  0  0  0  0  0  0  0
    1.4289    1.7250    0.0000 C   0  0  0  0  0  0  0  0  0  0  0  0
    0.7145    2.1375    0.0000 C   0  0  0  0  0  0  0  0  0  0  0  0
    0.7145    2.9625    0.0000 C   0  0  0  0  0  0  0  0  0  0  0  0
   -0.0000    1.7250    0.0000 C   0  0  0  0  0  0  0  0  0  0  0  0
   -0.0000    0.9000    0.0000 C   0  0  0  0  0  0  0  0  0  0  0  0
   -0.7145    0.4875    0.0000 O   0  0  0  0  0  0  0  0  0  0  0  0
  1  2  1  0  0  0  0
  2  3  1  0  0  0  0
  2  4  1  0  0  0  0
  5  4  1  0  0  0  0
  6  5  1  0  0  0  0
  7  6  1  0  0  0  0
  7  8  1  0  0  0  0
  9  7  1  0  0  0  0
 10  9  1  0  0  0  0
  4 10  1  0  0  0  0
 10 11  1  0  0  0  0
M  END
> <RowID>
1704

> <Original_SMILES>
CC(C)C1CCC(C)CC1O

> <Canonical_QSARr>
CC(C)C1CCC(C)CC1O

> <InChI_Code_QSARr>
InChI=1S/C10H20O/c1-7(2)9-5-4-8(3)6-10(9)11/h7-11H,4-6H2,1-3H3

> <InChI Key_QSARr>
NOOLISFMXDJSKH-UHFFFAOYSA-N

> <Salt_Solvent>


> <Salt_Solvent_ID>
0

> <Number of connected components>
1

$$$$
Molecule_1705
  Mrv2316 01072400032D          

  4  3  0  0  0  0            999 V2000
    1.2375   -0.7145    0.0000 C   0  0  0  0  0  0  0  0  0  0  0  0
    0.8250   -0.0000    0.0000 C   0  0  0  0  0  0  0  0  0  0  0  0
    0.0000   -0.0000    0.0000 C   0  0  0  0  0  0  0  0  0  0  0  0
   -0.8250   -0.0000    0.0000 C   0  0  0  0  0  0  0  0  0  0  0  0
  1  2  1  0  0  0  0
  2  3  2  0  0  0  0
  3  4  2  0  0  0  0
M  END
> <RowID>
1705

> <Original_SMILES>
CC=C=C

> <Canonical_QSARr>
CC=C=C

> <InChI_Code_QSARr>
InChI=1S/C4H6/c1-3-4-2/h4H,1H2,2H3

> <InChI Key_QSARr>
QNRMTGGDHLBXQZ-UHFFFAOYSA-N

> <Salt_Solvent>


> <Salt_Solvent_ID>
0

> <Number of connected components>
1

$$$$
Molecule_1706
  Mrv2316 01072400032D          

 28 29  0  0  0  0            999 V2000
    0.7145   -9.0750    0.0000 O   0  5  0  0  0  0  0  0  0  0  0  0
    1.4289   -8.6625    0.0000 N   0  3  0  0  0  0  0  0  0  0  0  0
    2.1434   -9.0750    0.0000 O   0  0  0  0  0  0  0  0  0  0  0  0
    1.4289   -7.8375    0.0000 C   0  0  0  0  0  0  0  0  0  0  0  0
    2.1434   -7.4250    0.0000 C   0  0  0  0  0  0  0  0  0  0  0  0
    2.1434   -6.6000    0.0000 C   0  0  0  0  0  0  0  0  0  0  0  0
    1.4289   -6.1875    0.0000 C   0  0  0  0  0  0  0  0  0  0  0  0
    1.4289   -5.3625    0.0000 C   0  0  0  0  0  0  0  0  0  0  0  0
    2.1434   -4.9500    0.0000 C   0  0  0  0  0  0  0  0  0  0  0  0
    2.1434   -4.1250    0.0000 C   0  0  0  0  0  0  0  0  0  0  0  0
    2.8579   -3.7125    0.0000 C   0  0  0  0  0  0  0  0  0  0  0  0
    3.5723   -4.1250    0.0000 S   0  0  0  0  0  0  0  0  0  0  0  0
    4.2868   -4.5375    0.0000 O   0  0  0  0  0  0  0  0  0  0  0  0
    3.9848   -3.4105    0.0000 O   0  0  0  0  0  0  0  0  0  0  0  0
    3.1598   -4.8395    0.0000 O   0  0  0  0  0  0  0  0  0  0  0  0
    2.8579   -2.8875    0.0000 C   0  0  0  0  0  0  0  0  0  0  0  0
    2.1434   -2.4750    0.0000 C   0  0  0  0  0  0  0  0  0  0  0  0
    2.1434   -1.6500    0.0000 N   0  3  0  0  0  0  0  0  0  0  0  0
    1.4289   -1.2375    0.0000 O   0  5  0  0  0  0  0  0  0  0  0  0
    2.8579   -1.2375    0.0000 O   0  0  0  0  0  0  0  0  0  0  0  0
    1.4289   -2.8875    0.0000 C   0  0  0  0  0  0  0  0  0  0  0  0
    1.4289   -3.7125    0.0000 C   0  0  0  0  0  0  0  0  0  0  0  0
    0.7145   -6.6000    0.0000 C   0  0  0  0  0  0  0  0  0  0  0  0
   -0.0000   -6.1875    0.0000 S   0  0  0  0  0  0  0  0  0  0  0  0
   -0.7145   -5.7750    0.0000 O   0  0  0  0  0  0  0  0  0  0  0  0
   -0.4125   -6.9020    0.0000 O   0  0  0  0  0  0  0  0  0  0  0  0
    0.4125   -5.4730    0.0000 O   0  0  0  0  0  0  0  0  0  0  0  0
    0.7145   -7.4250    0.0000 C   0  0  0  0  0  0  0  0  0  0  0  0
  1  2  1  0  0  0  0
  2  3  2  0  0  0  0
  2  4  1  0  0  0  0
  5  4  1  0  0  0  0
  6  5  2  0  0  0  0
  7  6  1  0  0  0  0
  8  7  1  4  0  0  0
  8  9  2  0  0  0  0
  9 10  1  0  0  0  0
 11 10  2  0  0  0  0
 11 12  1  0  0  0  0
 12 13  1  0  0  0  0
 12 14  2  0  0  0  0
 12 15  2  0  0  0  0
 16 11  1  0  0  0  0
 17 16  2  0  0  0  0
 17 18  1  0  0  0  0
 18 19  1  0  0  0  0
 18 20  2  0  0  0  0
 21 17  1  0  0  0  0
 22 21  2  0  0  0  0
 10 22  1  0  0  0  0
 23  7  2  0  0  0  0
 23 24  1  0  0  0  0
 24 25  1  0  0  0  0
 24 26  2  0  0  0  0
 24 27  2  0  0  0  0
 28 23  1  0  0  0  0
  4 28  2  0  0  0  0
M  CHG  4   1  -1   2   1  18   1  19  -1
M  END
> <RowID>
1706

> <Original_SMILES>
[Na+].[Na+].[O-]S(=O)(=O)C1=CC(=CC=C1C=CC1=CC=C(C=C1S([O-])(=O)=O)[N+]([O-])=O)[N+]([O-])=O

> <Canonical_QSARr>
[O-][N+](=O)C1=CC(=C(C=CC2C=CC(=CC=2S(O)(=O)=O)[N+]([O-])=O)C=C1)S(O)(=O)=O

> <InChI_Code_QSARr>
InChI=1S/C14H10N2O10S2/c17-15(18)11-5-3-9(13(7-11)27(21,22)23)1-2-10-4-6-12(16(19)20)8-14(10)28(24,25)26/h1-8H,(H,21,22,23)(H,24,25,26)

> <InChI Key_QSARr>
UETHPMGVZHBAFB-UHFFFAOYSA-N

> <Salt_Solvent>
[Na+]

> <Salt_Solvent_ID>
110

> <Number of connected components>
3

$$$$
Molecule_1708
  Mrv2316 01072400032D          

  7  7  0  0  0  0            999 V2000
    0.7145    2.0625    0.0000 C   0  0  0  0  0  0  0  0  0  0  0  0
    0.7145    1.2375    0.0000 C   0  0  0  0  0  0  0  0  0  0  0  0
    0.0000    0.8250    0.0000 C   0  0  0  0  0  0  0  0  0  0  0  0
    0.0000   -0.0000    0.0000 C   0  0  0  0  0  0  0  0  0  0  0  0
    0.7145   -0.4125    0.0000 C   0  0  0  0  0  0  0  0  0  0  0  0
    1.4289    0.0000    0.0000 C   0  0  0  0  0  0  0  0  0  0  0  0
    1.4289    0.8250    0.0000 C   0  0  0  0  0  0  0  0  0  0  0  0
  1  2  1  0  0  0  0
  3  2  1  0  0  0  0
  4  3  1  0  0  0  0
  5  4  1  0  0  0  0
  6  5  1  0  0  0  0
  7  6  1  0  0  0  0
  2  7  1  0  0  0  0
M  END
> <RowID>
1708

> <Original_SMILES>
CC1CCCCC1

> <Canonical_QSARr>
CC1CCCCC1

> <InChI_Code_QSARr>
InChI=1S/C7H14/c1-7-5-3-2-4-6-7/h7H,2-6H2,1H3

> <InChI Key_QSARr>
UAEPNZWRGJTJPN-UHFFFAOYSA-N

> <Salt_Solvent>


> <Salt_Solvent_ID>
0

> <Number of connected components>
1

$$$$
Molecule_1709
  Mrv2316 01072400032D          

 13 13  0  0  0  0            999 V2000
    1.0164    3.1895    0.0000 C   0  0  0  0  0  0  0  0  0  0  0  0
    1.4289    2.4750    0.0000 C   0  0  0  0  0  0  0  0  0  0  0  0
    0.7145    2.0625    0.0000 C   0  0  0  0  0  0  0  0  0  0  0  0
    0.7145    1.2375    0.0000 C   0  0  0  0  0  0  0  0  0  0  0  0
   -0.0000    0.8250    0.0000 C   0  0  0  0  0  0  0  0  0  0  0  0
   -0.0000    0.0000    0.0000 C   0  0  0  0  0  0  0  0  0  0  0  0
    0.7145   -0.4125    0.0000 C   0  0  0  0  0  0  0  0  0  0  0  0
    1.4289    0.0000    0.0000 C   0  0  0  0  0  0  0  0  0  0  0  0
    1.4289    0.8250    0.0000 C   0  0  0  0  0  0  0  0  0  0  0  0
    2.1434    2.8875    0.0000 C   0  0  0  0  0  0  0  0  0  0  0  0
    2.1434    3.7125    0.0000 C   0  0  0  0  0  0  0  0  0  0  0  0
    1.8414    1.7605    0.0000 C   0  0  0  0  0  0  0  0  0  0  0  0
    2.2539    1.0461    0.0000 N   0  0  0  0  0  0  0  0  0  0  0  0
  1  2  1  0  0  0  0
  2  3  1  0  0  0  0
  3  4  1  0  0  0  0
  5  4  1  0  0  0  0
  6  5  2  0  0  0  0
  7  6  1  0  0  0  0
  8  7  2  0  0  0  0
  9  8  1  0  0  0  0
  4  9  2  0  0  0  0
  2 10  1  0  0  0  0
 10 11  2  0  0  0  0
  2 12  1  0  0  0  0
 12 13  3  0  0  0  0
M  END
> <RowID>
1709

> <Original_SMILES>
CC(CC1C=CC=CC=1)(C=C)C#N

> <Canonical_QSARr>
CC(CC1C=CC=CC=1)(C=C)C#N

> <InChI_Code_QSARr>
InChI=1S/C12H13N/c1-3-12(2,10-13)9-11-7-5-4-6-8-11/h3-8H,1,9H2,2H3

> <InChI Key_QSARr>
UKLOORXNVRHFRM-UHFFFAOYSA-N

> <Salt_Solvent>


> <Salt_Solvent_ID>
0

> <Number of connected components>
1

$$$$
Molecule_1710
  Mrv2316 01072400032D          

  8  8  0  0  0  0            999 V2000
    0.7145   -1.2375    0.0000 C   0  0  0  0  0  0  0  0  0  0  0  0
    0.7145   -0.4125    0.0000 C   0  0  0  0  0  0  0  0  0  0  0  0
    1.4289    0.0000    0.0000 C   0  0  0  0  0  0  0  0  0  0  0  0
    1.4289    0.8250    0.0000 C   0  0  0  0  0  0  0  0  0  0  0  0
    0.7145    1.2375    0.0000 C   0  0  0  0  0  0  0  0  0  0  0  0
    0.7145    2.0625    0.0000 C   0  0  0  0  0  0  0  0  0  0  0  0
    0.0000    0.8250    0.0000 C   0  0  0  0  0  0  0  0  0  0  0  0
    0.0000    0.0000    0.0000 C   0  0  0  0  0  0  0  0  0  0  0  0
  1  2  1  0  0  0  0
  3  2  1  0  0  0  0
  4  3  2  0  0  0  0
  5  4  1  0  0  0  0
  5  6  1  0  0  0  0
  7  5  2  0  0  0  0
  8  7  1  0  0  0  0
  2  8  2  0  0  0  0
M  END
> <RowID>
1710

> <Original_SMILES>
CC1C=CC(C)=CC=1

> <Canonical_QSARr>
CC1C=CC(C)=CC=1

> <InChI_Code_QSARr>
InChI=1S/C8H10/c1-7-3-5-8(2)6-4-7/h3-6H,1-2H3

> <InChI Key_QSARr>
URLKBWYHVLBVBO-UHFFFAOYSA-N

> <Salt_Solvent>


> <Salt_Solvent_ID>
0

> <Number of connected components>
1

$$$$
Molecule_1712
  Mrv2316 01072400032D          

  9  9  0  0  0  0            999 V2000
    1.9846   -0.1375    0.0000 C   0  0  0  0  0  0  0  0  0  0  0  0
    1.2702    0.2750    0.0000 C   0  0  0  0  0  0  0  0  0  0  0  0
    1.2702    1.1000    0.0000 C   0  0  0  0  0  0  0  0  0  0  0  0
    0.5557    1.5125    0.0000 C   0  0  0  0  0  0  0  0  0  0  0  0
    0.5557    2.3375    0.0000 N   0  0  0  0  0  0  0  0  0  0  0  0
   -0.1588    1.1000    0.0000 C   0  0  0  0  0  0  0  0  0  0  0  0
   -0.1588    0.2750    0.0000 C   0  0  0  0  0  0  0  0  0  0  0  0
    0.5557   -0.1375    0.0000 C   0  0  0  0  0  0  0  0  0  0  0  0
    0.5557   -0.9625    0.0000 N   0  0  0  0  0  0  0  0  0  0  0  0
  1  2  1  0  0  0  0
  3  2  1  0  0  0  0
  4  3  2  0  0  0  0
  4  5  1  0  0  0  0
  6  4  1  0  0  0  0
  7  6  2  0  0  0  0
  8  7  1  0  0  0  0
  2  8  2  0  0  0  0
  8  9  1  0  0  0  0
M  END
> <RowID>
1712

> <Original_SMILES>
CC1C=C(N)C=CC=1N

> <Canonical_QSARr>
CC1C=C(N)C=CC=1N

> <InChI_Code_QSARr>
InChI=1S/C7H10N2/c1-5-4-6(8)2-3-7(5)9/h2-4H,8-9H2,1H3

> <InChI Key_QSARr>
OBCSAIDCZQSFQH-UHFFFAOYSA-N

> <Salt_Solvent>


> <Salt_Solvent_ID>
0

> <Number of connected components>
1

$$$$
Molecule_1713
  Mrv2316 01072400032D          

 15 14  0  0  0  0            999 V2000
    3.5211   -2.8579    0.0000 C   0  0  0  0  0  0  0  0  0  0  0  0
    4.2355   -3.2704    0.0000 C   0  0  0  0  0  0  0  0  0  0  0  0
    4.9500   -2.8579    0.0000 C   0  0  0  0  0  0  0  0  0  0  0  0
    5.6645   -3.2704    0.0000 C   0  0  0  0  0  0  0  0  0  0  0  0
    6.3789   -2.8579    0.0000 C   0  0  0  0  0  0  0  0  0  0  0  0
    7.0934   -3.2704    0.0000 C   0  0  0  0  0  0  0  0  0  0  0  0
    7.8079   -2.8579    0.0000 C   0  0  0  0  0  0  0  0  0  0  0  0
    7.8079   -2.0329    0.0000 C   0  0  0  0  0  0  0  0  0  0  0  0
    8.5224   -3.2704    0.0000 O   0  0  0  0  0  0  0  0  0  0  0  0
    9.2368   -2.8579    0.0000 C   0  0  0  0  0  0  0  0  0  0  0  0
    9.2368   -2.0329    0.0000 O   0  0  0  0  0  0  0  0  0  0  0  0
    9.9513   -3.2704    0.0000 C   0  0  0  0  0  0  0  0  0  0  0  0
    9.9513   -4.0954    0.0000 C   0  0  0  0  0  0  0  0  0  0  0  0
   10.6658   -2.8579    0.0000 C   0  0  0  0  0  0  0  0  0  0  0  0
   11.3802   -2.4454    0.0000 N   0  0  0  0  0  0  0  0  0  0  0  0
  1  2  1  0  0  0  0
  2  3  1  0  0  0  0
  3  4  1  0  0  0  0
  4  5  1  0  0  0  0
  5  6  1  0  0  0  0
  6  7  1  0  0  0  0
  7  8  1  0  0  0  0
  7  9  1  0  0  0  0
  9 10  1  0  0  0  0
 10 11  2  0  0  0  0
 10 12  1  0  0  0  0
 12 13  2  0  0  0  0
 12 14  1  0  0  0  0
 14 15  3  0  0  0  0
M  END
> <RowID>
1713

> <Original_SMILES>
CCCCCCC(C)OC(=O)C(=C)C#N

> <Canonical_QSARr>
CCCCCCC(C)OC(=O)C(=C)C#N

> <InChI_Code_QSARr>
InChI=1S/C12H19NO2/c1-4-5-6-7-8-11(3)15-12(14)10(2)9-13/h11H,2,4-8H2,1,3H3

> <InChI Key_QSARr>
CQVWXNBVRLKXPE-UHFFFAOYSA-N

> <Salt_Solvent>


> <Salt_Solvent_ID>
0

> <Number of connected components>
1

$$$$
Molecule_1714
  Mrv2316 01072400032D          

 14 13  0  0  0  0            999 V2000
    3.7125    2.1434    0.0000 C   0  0  0  0  0  0  0  0  0  0  0  0
    3.3000    1.4289    0.0000 C   0  0  0  0  0  0  0  0  0  0  0  0
    3.7125    0.7145    0.0000 C   0  0  0  0  0  0  0  0  0  0  0  0
    2.4750    1.4289    0.0000 C   0  0  0  0  0  0  0  0  0  0  0  0
    2.0625    0.7145    0.0000 C   0  0  0  0  0  0  0  0  0  0  0  0
    1.2375    0.7145    0.0000 C   0  0  0  0  0  0  0  0  0  0  0  0
    0.8250   -0.0000    0.0000 C   0  0  0  0  0  0  0  0  0  0  0  0
    1.2375   -0.7145    0.0000 C   0  0  0  0  0  0  0  0  0  0  0  0
   -0.0000   -0.0000    0.0000 C   0  0  0  0  0  0  0  0  0  0  0  0
   -0.4125   -0.7145    0.0000 C   0  0  0  0  0  0  0  0  0  0  0  0
    0.0000   -1.4289    0.0000 C   0  0  0  0  0  0  0  0  0  0  0  0
   -0.4125   -2.1434    0.0000 C   0  0  0  0  0  0  0  0  0  0  0  0
    0.0000   -2.8579    0.0000 C   0  0  0  0  0  0  0  0  0  0  0  0
   -1.2375   -2.1434    0.0000 O   0  0  0  0  0  0  0  0  0  0  0  0
  1  2  1  0  0  0  0
  2  3  1  0  0  0  0
  2  4  2  0  0  0  0
  4  5  1  0  0  0  0
  5  6  1  0  0  0  0
  6  7  1  0  0  0  0
  7  8  1  0  0  0  0
  7  9  2  0  0  0  0
  9 10  1  4  0  0  0
 10 11  1  0  0  0  0
 11 12  1  0  0  0  0
 12 13  1  0  0  0  0
 12 14  2  0  0  0  0
M  END
> <RowID>
1714

> <Original_SMILES>
CC(C)=CCCC(C)=CCCC(C)=O

> <Canonical_QSARr>
CC(C)=CCCC(C)=CCCC(C)=O

> <InChI_Code_QSARr>
InChI=1S/C13H22O/c1-11(2)7-5-8-12(3)9-6-10-13(4)14/h7,9H,5-6,8,10H2,1-4H3

> <InChI Key_QSARr>
HNZUNIKWNYHEJJ-UHFFFAOYSA-N

> <Salt_Solvent>


> <Salt_Solvent_ID>
0

> <Number of connected components>
1

$$$$
Molecule_1715
  Mrv2316 01072400032D          

 12 13  0  0  0  0            999 V2000
    2.1165   -0.4815    0.0000 C   0  0  0  0  0  0  0  0  0  0  0  0
    1.6957    0.2282    0.0000 C   0  0  0  0  0  0  0  0  0  0  0  0
    0.8708    0.2186    0.0000 C   0  0  0  0  0  0  0  0  0  0  0  0
    0.7654    1.0144    0.0000 C   0  0  0  0  0  0  0  0  0  0  0  0
    0.8542    1.6474    0.0000 C   0  0  0  0  0  0  0  0  0  0  0  0
    0.4500    0.9282    0.0000 C   0  0  0  0  0  0  0  0  0  0  0  0
   -0.2829    1.3071    0.0000 C   0  0  0  0  0  0  0  0  0  0  0  0
   -0.2739    0.5325    0.0000 C   0  0  0  0  0  0  0  0  0  0  0  0
    1.6791    1.6570    0.0000 C   0  0  0  0  0  0  0  0  0  0  0  0
    2.0999    0.9474    0.0000 C   0  0  0  0  0  0  0  0  0  0  0  0
    2.9248    0.9570    0.0000 C   0  0  0  0  0  0  0  0  0  0  0  0
    3.3290    1.6762    0.0000 O   0  0  0  0  0  0  0  0  0  0  0  0
  1  2  1  0  0  0  0
  3  2  1  0  0  0  0
  3  4  1  0  0  0  0
  4  5  1  0  0  0  0
  5  6  1  0  0  0  0
  6  3  1  0  0  0  0
  6  7  1  0  0  0  0
  6  8  1  0  0  0  0
  9  5  1  0  0  0  0
 10  9  1  0  0  0  0
  2 10  1  0  0  0  0
 10 11  1  0  0  0  0
 11 12  2  0  0  0  0
M  END
> <RowID>
1715

> <Original_SMILES>
CC1C2CC(CC1C=O)C2(C)C

> <Canonical_QSARr>
CC1C2CC(CC1C=O)C2(C)C

> <InChI_Code_QSARr>
InChI=1S/C11H18O/c1-7-8(6-12)4-9-5-10(7)11(9,2)3/h6-10H,4-5H2,1-3H3

> <InChI Key_QSARr>
VUNCLQCPKWLBRY-UHFFFAOYSA-N

> <Salt_Solvent>


> <Salt_Solvent_ID>
0

> <Number of connected components>
1

$$$$
Molecule_1716
  Mrv2316 01072400032D          

 13 13  0  0  0  0            999 V2000
    1.0482    2.1055    0.0000 Br  0  0  0  0  0  0  0  0  0  0  0  0
    1.4607    1.3910    0.0000 C   0  0  0  0  0  0  0  0  0  0  0  0
    1.0482    0.6765    0.0000 C   0  0  0  0  0  0  0  0  0  0  0  0
    0.2232    0.6765    0.0000 C   0  0  0  0  0  0  0  0  0  0  0  0
   -0.1893   -0.0380    0.0000 C   0  0  0  0  0  0  0  0  0  0  0  0
    0.2232   -0.7524    0.0000 C   0  0  0  0  0  0  0  0  0  0  0  0
    1.0482   -0.7524    0.0000 C   0  0  0  0  0  0  0  0  0  0  0  0
    1.4607   -1.4669    0.0000 C   0  0  0  0  0  0  0  0  0  0  0  0
    2.2857   -1.4669    0.0000 C   0  0  0  0  0  0  0  0  0  0  0  0
    2.6982   -0.7524    0.0000 C   0  0  0  0  0  0  0  0  0  0  0  0
    2.2857   -0.0380    0.0000 C   0  0  0  0  0  0  0  0  0  0  0  0
    2.6982    0.6765    0.0000 C   0  0  0  0  0  0  0  0  0  0  0  0
    2.2857    1.3910    0.0000 C   0  0  0  0  0  0  0  0  0  0  0  0
  1  2  1  0  0  0  0
  3  2  1  0  0  0  0
  4  3  1  0  0  0  0
  5  4  1  0  0  0  0
  6  5  1  0  0  0  0
  7  6  1  0  0  0  0
  8  7  1  0  0  0  0
  9  8  1  0  0  0  0
 10  9  1  0  0  0  0
 11 10  1  0  0  0  0
 12 11  1  0  0  0  0
 13 12  1  0  0  0  0
  2 13  1  0  0  0  0
M  END
> <RowID>
1716

> <Original_SMILES>
BrC1CCCCCCCCCCC1.Br%91.Br%92.Br%93.Br%94.Br%95.[*]%91.[*]%92.[*]%93.[*]%94.[*]%95

> <Canonical_QSARr>
BrC1CCCCCCCCCCC1

> <InChI_Code_QSARr>
InChI=1S/C12H23Br/c13-12-10-8-6-4-2-1-3-5-7-9-11-12/h12H,1-11H2

> <InChI Key_QSARr>
IADKAKQBSKWITE-UHFFFAOYSA-N

> <Salt_Solvent>
Br%91.[*]%91

> <Salt_Solvent_ID>
1661

> <Number of connected components>
6

$$$$
Molecule_1717
  Mrv2316 01072400032D          

 29 30  0  0  0  0            999 V2000
   -0.1232   -4.5659    0.0000 O   0  5  0  0  0  0  0  0  0  0  0  0
   -0.1232   -3.7409    0.0000 N   0  3  0  0  0  0  0  0  0  0  0  0
    0.5913   -3.3284    0.0000 O   0  0  0  0  0  0  0  0  0  0  0  0
   -0.8377   -3.3284    0.0000 C   0  0  0  0  0  0  0  0  0  0  0  0
   -0.8377   -2.5034    0.0000 C   0  0  0  0  0  0  0  0  0  0  0  0
   -0.1232   -2.0909    0.0000 N   0  0  0  0  0  0  0  0  0  0  0  0
    0.5913   -2.5034    0.0000 N   0  0  0  0  0  0  0  0  0  0  0  0
    1.3058   -2.0909    0.0000 C   0  0  0  0  0  0  0  0  0  0  0  0
    1.3058   -1.2659    0.0000 C   0  0  0  0  0  0  0  0  0  0  0  0
    0.5913   -0.8534    0.0000 C   0  0  0  0  0  0  0  0  0  0  0  0
    2.0202   -0.8534    0.0000 O   0  0  0  0  0  0  0  0  0  0  0  0
    2.0202   -2.5034    0.0000 C   0  0  0  0  0  0  0  0  0  0  0  0
    2.7347   -2.0909    0.0000 N   0  0  0  0  0  0  0  0  0  0  0  0
    3.4492   -2.5034    0.0000 C   0  0  0  0  0  0  0  0  0  0  0  0
    3.4492   -3.3284    0.0000 C   0  0  0  0  0  0  0  0  0  0  0  0
    2.7347   -3.7409    0.0000 C   0  0  0  0  0  0  0  0  0  0  0  0
    4.1636   -3.7409    0.0000 C   0  0  0  0  0  0  0  0  0  0  0  0
    4.8781   -3.3284    0.0000 C   0  0  0  0  0  0  0  0  0  0  0  0
    4.8781   -2.5034    0.0000 C   0  0  0  0  0  0  0  0  0  0  0  0
    4.1636   -2.0909    0.0000 C   0  0  0  0  0  0  0  0  0  0  0  0
    2.0202   -3.3284    0.0000 O   0  0  0  0  0  0  0  0  0  0  0  0
   -1.5521   -2.0909    0.0000 C   0  0  0  0  0  0  0  0  0  0  0  0
   -2.2666   -2.5034    0.0000 C   0  0  0  0  0  0  0  0  0  0  0  0
   -2.2666   -3.3284    0.0000 C   0  0  0  0  0  0  0  0  0  0  0  0
   -2.9811   -3.7409    0.0000 S   0  0  0  0  0  0  0  0  0  0  0  0
   -3.6955   -4.1534    0.0000 O   0  0  0  0  0  0  0  0  0  0  0  0
   -3.3936   -3.0265    0.0000 O   0  0  0  0  0  0  0  0  0  0  0  0
   -2.5686   -4.4554    0.0000 O   0  0  0  0  0  0  0  0  0  0  0  0
   -1.5521   -3.7409    0.0000 C   0  0  0  0  0  0  0  0  0  0  0  0
  1  2  1  0  0  0  0
  2  3  2  0  0  0  0
  2  4  1  0  0  0  0
  5  4  2  0  0  0  0
  6  5  1  4  0  0  0
  6  7  2  0  0  0  0
  7  8  1  0  0  0  0
  8  9  1  0  0  0  0
  9 10  1  0  0  0  0
  9 11  2  0  0  0  0
  8 12  1  0  0  0  0
 12 13  1  0  0  0  0
 13 14  1  0  0  0  0
 15 14  2  0  0  0  0
 15 16  1  0  0  0  0
 17 15  1  0  0  0  0
 18 17  2  0  0  0  0
 19 18  1  0  0  0  0
 20 19  2  0  0  0  0
 14 20  1  0  0  0  0
 12 21  2  0  0  0  0
 22  5  1  0  0  0  0
 23 22  2  0  0  0  0
 24 23  1  0  0  0  0
 24 25  1  0  0  0  0
 25 26  1  0  0  0  0
 25 27  2  0  0  0  0
 25 28  2  0  0  0  0
 29 24  2  0  0  0  0
  4 29  1  0  0  0  0
M  CHG  2   1  -1   2   1
M  END
> <RowID>
1717

> <Original_SMILES>
[Ca+2].CC(=O)C(N=NC1C=CC(=CC=1[N+]([O-])=O)S([O-])(=O)=O)C(=O)NC1C=CC=CC=1C.CC(=O)C(N=NC1C=CC(=CC=1[N+]([O-])=O)S([O-])(=O)=O)C(=O)NC1C=CC=CC=1C

> <Canonical_QSARr>
CC(=O)C(N=NC1C=CC(=CC=1[N+]([O-])=O)S(O)(=O)=O)C(=O)NC1C=CC=CC=1C

> <InChI_Code_QSARr>
InChI=1S/C17H16N4O7S/c1-10-5-3-4-6-13(10)18-17(23)16(11(2)22)20-19-14-8-7-12(29(26,27)28)9-15(14)21(24)25/h3-9,16H,1-2H3,(H,18,23)(H,26,27,28)

> <InChI Key_QSARr>
SNFDYKQTKIEAFN-UHFFFAOYSA-N

> <Salt_Solvent>
[Ca+2]

> <Salt_Solvent_ID>
200

> <Number of connected components>
3

$$$$
Molecule_1718
  Mrv2316 01072400032D          

 27 28  0  0  0  0            999 V2000
   -0.2108   -6.5263    0.0000 O   0  0  0  0  0  0  0  0  0  0  0  0
   -0.0393   -5.7193    0.0000 C   0  0  0  0  0  0  0  0  0  0  0  0
   -0.6524   -5.1673    0.0000 N   0  0  0  0  0  0  0  0  0  0  0  0
   -0.5662   -4.3468    0.0000 C   0  0  0  0  0  0  0  0  0  0  0  0
    0.1483   -3.9343    0.0000 N   0  0  0  0  0  0  0  0  0  0  0  0
    0.8628   -4.3468    0.0000 C   0  0  0  0  0  0  0  0  0  0  0  0
    0.8628   -5.1718    0.0000 O   0  0  0  0  0  0  0  0  0  0  0  0
    1.5772   -3.9343    0.0000 N   0  0  0  0  0  0  0  0  0  0  0  0
    2.2917   -4.3468    0.0000 C   0  0  0  0  0  0  0  0  0  0  0  0
    3.0062   -3.9343    0.0000 N   0  0  0  0  0  0  0  0  0  0  0  0
    3.7207   -4.3468    0.0000 C   0  0  0  0  0  0  0  0  0  0  0  0
    3.7207   -5.1718    0.0000 O   0  0  0  0  0  0  0  0  0  0  0  0
    4.4351   -3.9343    0.0000 N   0  0  0  0  0  0  0  0  0  0  0  0
    5.1496   -4.3468    0.0000 C   0  0  0  0  0  0  0  0  0  0  0  0
    5.2358   -5.1673    0.0000 C   0  0  0  0  0  0  0  0  0  0  0  0
    4.6227   -5.7193    0.0000 O   0  0  0  0  0  0  0  0  0  0  0  0
    6.0428   -5.3388    0.0000 N   0  0  0  0  0  0  0  0  0  0  0  0
    6.4553   -4.6243    0.0000 C   0  0  0  0  0  0  0  0  0  0  0  0
    7.2758   -4.5381    0.0000 O   0  0  0  0  0  0  0  0  0  0  0  0
    5.9033   -4.0113    0.0000 N   0  0  0  0  0  0  0  0  0  0  0  0
    6.0748   -3.2043    0.0000 C   0  0  0  0  0  0  0  0  0  0  0  0
    5.4617   -2.6522    0.0000 O   0  0  0  0  0  0  0  0  0  0  0  0
   -1.3199   -4.0113    0.0000 C   0  0  0  0  0  0  0  0  0  0  0  0
   -1.4914   -3.2043    0.0000 O   0  0  0  0  0  0  0  0  0  0  0  0
   -1.8719   -4.6243    0.0000 N   0  0  0  0  0  0  0  0  0  0  0  0
   -1.4594   -5.3388    0.0000 C   0  0  0  0  0  0  0  0  0  0  0  0
   -1.7949   -6.0925    0.0000 O   0  0  0  0  0  0  0  0  0  0  0  0
  1  2  1  0  0  0  0
  2  3  1  0  0  0  0
  4  3  1  0  0  0  0
  4  5  1  0  0  0  0
  5  6  1  0  0  0  0
  6  7  2  0  0  0  0
  6  8  1  0  0  0  0
  8  9  1  0  0  0  0
  9 10  1  0  0  0  0
 10 11  1  0  0  0  0
 11 12  2  0  0  0  0
 11 13  1  0  0  0  0
 13 14  1  0  0  0  0
 15 14  1  0  0  0  0
 15 16  2  0  0  0  0
 17 15  1  0  0  0  0
 18 17  1  0  0  0  0
 18 19  2  0  0  0  0
 20 18  1  0  0  0  0
 14 20  1  0  0  0  0
 20 21  1  0  0  0  0
 21 22  1  0  0  0  0
 23  4  1  0  0  0  0
 23 24  2  0  0  0  0
 25 23  1  0  0  0  0
 26 25  1  0  0  0  0
  3 26  1  0  0  0  0
 26 27  2  0  0  0  0
M  END
> <RowID>
1718

> <Original_SMILES>
OCN1C(NC(=O)NCNC(=O)NC2C(=O)NC(=O)N2CO)C(=O)NC1=O

> <Canonical_QSARr>
OCN1C(NC(=O)NCNC(=O)NC2C(=O)NC(=O)N2CO)C(=O)NC1=O

> <InChI_Code_QSARr>
InChI=1S/C11H16N8O8/c20-2-18-4(6(22)16-10(18)26)14-8(24)12-1-13-9(25)15-5-7(23)17-11(27)19(5)3-21/h4-5,20-21H,1-3H2,(H2,12,14,24)(H2,13,15,25)(H,16,22,26)(H,17,23,27)

> <InChI Key_QSARr>
ZCTXEAQXZGPWFG-UHFFFAOYSA-N

> <Salt_Solvent>


> <Salt_Solvent_ID>
0

> <Number of connected components>
1

$$$$
Molecule_1719
  Mrv2316 01072400032D          

 11 10  0  0  0  0            999 V2000
    4.2355    3.2704    0.0000 C   0  0  0  0  0  0  0  0  0  0  0  0
    4.9500    2.8579    0.0000 O   0  0  0  0  0  0  0  0  0  0  0  0
    5.6645    3.2704    0.0000 C   0  0  0  0  0  0  0  0  0  0  0  0
    6.3789    2.8579    0.0000 C   0  0  0  0  0  0  0  0  0  0  0  0
    7.0934    3.2704    0.0000 O   0  0  0  0  0  0  0  0  0  0  0  0
    7.8079    2.8579    0.0000 C   0  0  0  0  0  0  0  0  0  0  0  0
    8.5224    3.2704    0.0000 C   0  0  0  0  0  0  0  0  0  0  0  0
    9.2368    2.8579    0.0000 O   0  0  0  0  0  0  0  0  0  0  0  0
    9.9513    3.2704    0.0000 C   0  0  0  0  0  0  0  0  0  0  0  0
   10.6658    2.8579    0.0000 C   0  0  0  0  0  0  0  0  0  0  0  0
   11.3802    3.2704    0.0000 O   0  0  0  0  0  0  0  0  0  0  0  0
  1  2  1  0  0  0  0
  2  3  1  0  0  0  0
  3  4  1  0  0  0  0
  4  5  1  0  0  0  0
  5  6  1  0  0  0  0
  6  7  1  0  0  0  0
  7  8  1  0  0  0  0
  8  9  1  0  0  0  0
  9 10  1  0  0  0  0
 10 11  1  0  0  0  0
M  END
> <RowID>
1719

> <Original_SMILES>
COCCOCCOCCO

> <Canonical_QSARr>
COCCOCCOCCO

> <InChI_Code_QSARr>
InChI=1S/C7H16O4/c1-9-4-5-11-7-6-10-3-2-8/h8H,2-7H2,1H3

> <InChI Key_QSARr>
JLGLQAWTXXGVEM-UHFFFAOYSA-N

> <Salt_Solvent>


> <Salt_Solvent_ID>
0

> <Number of connected components>
1

$$$$
Molecule_1720
  Mrv2316 01072400032D          

 27 28  0  0  0  0            999 V2000
    2.1434   -5.5458    0.0000 C   0  0  0  0  0  0  0  0  0  0  0  0
    1.4289   -5.1333    0.0000 C   0  0  0  0  0  0  0  0  0  0  0  0
    0.7145   -5.5458    0.0000 O   0  0  0  0  0  0  0  0  0  0  0  0
    1.4289   -4.3083    0.0000 C   0  0  0  0  0  0  0  0  0  0  0  0
    0.7145   -3.8958    0.0000 N   0  0  0  0  0  0  0  0  0  0  0  0
    0.7145   -3.0708    0.0000 N   0  0  0  0  0  0  0  0  0  0  0  0
    0.0000   -2.6583    0.0000 C   0  0  0  0  0  0  0  0  0  0  0  0
    0.0000   -1.8333    0.0000 C   0  0  0  0  0  0  0  0  0  0  0  0
   -0.7145   -1.4208    0.0000 C   0  0  0  0  0  0  0  0  0  0  0  0
   -1.4289   -1.8333    0.0000 C   0  0  0  0  0  0  0  0  0  0  0  0
   -2.1434   -1.4208    0.0000 Cl  0  0  0  0  0  0  0  0  0  0  0  0
   -1.4289   -2.6583    0.0000 C   0  0  0  0  0  0  0  0  0  0  0  0
   -0.7145   -3.0708    0.0000 C   0  0  0  0  0  0  0  0  0  0  0  0
   -0.7145   -3.8958    0.0000 N   0  3  0  0  0  0  0  0  0  0  0  0
    0.0000   -4.3083    0.0000 O   0  5  0  0  0  0  0  0  0  0  0  0
   -1.4289   -4.3083    0.0000 O   0  0  0  0  0  0  0  0  0  0  0  0
    2.1434   -3.8958    0.0000 C   0  0  0  0  0  0  0  0  0  0  0  0
    2.1434   -3.0708    0.0000 O   0  0  0  0  0  0  0  0  0  0  0  0
    2.8579   -4.3083    0.0000 N   0  0  0  0  0  0  0  0  0  0  0  0
    3.5724   -3.8958    0.0000 C   0  0  0  0  0  0  0  0  0  0  0  0
    4.2868   -4.3083    0.0000 C   0  0  0  0  0  0  0  0  0  0  0  0
    5.0013   -3.8958    0.0000 C   0  0  0  0  0  0  0  0  0  0  0  0
    5.0013   -3.0708    0.0000 C   0  0  0  0  0  0  0  0  0  0  0  0
    4.2868   -2.6583    0.0000 C   0  0  0  0  0  0  0  0  0  0  0  0
    3.5724   -3.0708    0.0000 C   0  0  0  0  0  0  0  0  0  0  0  0
    2.8579   -2.6583    0.0000 O   0  0  0  0  0  0  0  0  0  0  0  0
    2.8579   -1.8333    0.0000 C   0  0  0  0  0  0  0  0  0  0  0  0
  1  2  1  0  0  0  0
  2  3  2  0  0  0  0
  2  4  1  0  0  0  0
  5  4  1  4  0  0  0
  5  6  2  0  0  0  0
  6  7  1  0  0  0  0
  8  7  1  0  0  0  0
  9  8  2  0  0  0  0
 10  9  1  0  0  0  0
 10 11  1  0  0  0  0
 12 10  2  0  0  0  0
 13 12  1  0  0  0  0
  7 13  2  0  0  0  0
 13 14  1  0  0  0  0
 14 15  1  0  0  0  0
 14 16  2  0  0  0  0
  4 17  1  0  0  0  0
 17 18  2  0  0  0  0
 17 19  1  0  0  0  0
 19 20  1  0  0  0  0
 21 20  2  0  0  0  0
 22 21  1  0  0  0  0
 23 22  2  0  0  0  0
 24 23  1  0  0  0  0
 25 24  2  0  0  0  0
 20 25  1  0  0  0  0
 25 26  1  0  0  0  0
 26 27  1  0  0  0  0
M  CHG  2  14   1  15  -1
M  END
> <RowID>
1720

> <Original_SMILES>
CC(=O)C(N=NC1C=CC(Cl)=CC=1[N+]([O-])=O)C(=O)NC1=CC=CC=C1OC

> <Canonical_QSARr>
CC(=O)C(N=NC1C=CC(Cl)=CC=1[N+]([O-])=O)C(=O)NC1=CC=CC=C1OC

> <InChI_Code_QSARr>
InChI=1S/C17H15ClN4O5/c1-10(23)16(17(24)19-13-5-3-4-6-15(13)27-2)21-20-12-8-7-11(18)9-14(12)22(25)26/h3-9,16H,1-2H3,(H,19,24)

> <InChI Key_QSARr>
QPHCXDDGQQLPIM-UHFFFAOYSA-N

> <Salt_Solvent>


> <Salt_Solvent_ID>
0

> <Number of connected components>
1

$$$$
Molecule_1721
  Mrv2316 01072400032D          

 32 36  0  0  0  0            999 V2000
    6.4303   -0.4125    0.0000 C   0  0  0  0  0  0  0  0  0  0  0  0
    5.7158   -0.0000    0.0000 C   0  0  0  0  0  0  0  0  0  0  0  0
    5.7158    0.8250    0.0000 C   0  0  0  0  0  0  0  0  0  0  0  0
    5.0013    1.2375    0.0000 C   0  0  0  0  0  0  0  0  0  0  0  0
    4.2869    0.8250    0.0000 C   0  0  0  0  0  0  0  0  0  0  0  0
    3.5724    1.2375    0.0000 N   0  0  0  0  0  0  0  0  0  0  0  0
    3.5724    2.0625    0.0000 C   0  0  0  0  0  0  0  0  0  0  0  0
    4.2869    2.4750    0.0000 C   0  0  0  0  0  0  0  0  0  0  0  0
    4.2869    3.3000    0.0000 C   0  0  0  0  0  0  0  0  0  0  0  0
    3.5724    3.7125    0.0000 C   0  0  0  0  0  0  0  0  0  0  0  0
    2.8579    3.3000    0.0000 C   0  0  0  0  0  0  0  0  0  0  0  0
    2.8579    2.4750    0.0000 C   0  0  0  0  0  0  0  0  0  0  0  0
    2.1434    2.0625    0.0000 C   0  0  0  0  0  0  0  0  0  0  0  0
    2.1434    1.2375    0.0000 O   0  0  0  0  0  0  0  0  0  0  0  0
    1.4290    2.4750    0.0000 C   0  0  0  0  0  0  0  0  0  0  0  0
    1.4290    3.3000    0.0000 C   0  0  0  0  0  0  0  0  0  0  0  0
    2.1434    3.7125    0.0000 C   0  0  0  0  0  0  0  0  0  0  0  0
    2.1434    4.5375    0.0000 O   0  0  0  0  0  0  0  0  0  0  0  0
    0.7145    3.7125    0.0000 C   0  0  0  0  0  0  0  0  0  0  0  0
    0.0000    3.3000    0.0000 C   0  0  0  0  0  0  0  0  0  0  0  0
    0.0000    2.4750    0.0000 C   0  0  0  0  0  0  0  0  0  0  0  0
    0.7145    2.0625    0.0000 C   0  0  0  0  0  0  0  0  0  0  0  0
    0.7145    1.2375    0.0000 N   0  0  0  0  0  0  0  0  0  0  0  0
    0.0000    0.8250    0.0000 C   0  0  0  0  0  0  0  0  0  0  0  0
   -0.7144    1.2375    0.0000 C   0  0  0  0  0  0  0  0  0  0  0  0
   -1.4289    0.8250    0.0000 C   0  0  0  0  0  0  0  0  0  0  0  0
   -1.4289    0.0000    0.0000 C   0  0  0  0  0  0  0  0  0  0  0  0
   -2.1434   -0.4125    0.0000 C   0  0  0  0  0  0  0  0  0  0  0  0
   -0.7144   -0.4125    0.0000 C   0  0  0  0  0  0  0  0  0  0  0  0
    0.0000    0.0000    0.0000 C   0  0  0  0  0  0  0  0  0  0  0  0
    4.2869    0.0000    0.0000 C   0  0  0  0  0  0  0  0  0  0  0  0
    5.0013   -0.4125    0.0000 C   0  0  0  0  0  0  0  0  0  0  0  0
  1  2  1  0  0  0  0
  3  2  1  0  0  0  0
  4  3  2  0  0  0  0
  5  4  1  0  0  0  0
  5  6  1  0  0  0  0
  6  7  1  0  0  0  0
  8  7  2  0  0  0  0
  9  8  1  0  0  0  0
 10  9  2  0  0  0  0
 11 10  1  0  0  0  0
 11 12  2  0  0  0  0
  7 12  1  0  0  0  0
 12 13  1  0  0  0  0
 13 14  2  0  0  0  0
 13 15  1  0  0  0  0
 16 15  1  0  0  0  0
 16 17  1  0  0  0  0
 17 11  1  0  0  0  0
 17 18  2  0  0  0  0
 19 16  2  0  0  0  0
 20 19  1  0  0  0  0
 21 20  2  0  0  0  0
 22 21  1  0  0  0  0
 15 22  2  0  0  0  0
 22 23  1  0  0  0  0
 23 24  1  0  0  0  0
 25 24  1  0  0  0  0
 26 25  2  0  0  0  0
 27 26  1  0  0  0  0
 27 28  1  0  0  0  0
 29 27  2  0  0  0  0
 30 29  1  0  0  0  0
 24 30  2  0  0  0  0
 31  5  2  0  0  0  0
 32 31  1  0  0  0  0
  2 32  2  0  0  0  0
M  END
> <RowID>
1721

> <Original_SMILES>
CC1C=CC(=CC=1)NC1=CC=CC2=C1C(=O)C1C(=CC=CC=1NC1C=CC(C)=CC=1)C2=O

> <Canonical_QSARr>
CC1C=CC(=CC=1)NC1=CC=CC2=C1C(=O)C1C(=CC=CC=1NC1C=CC(C)=CC=1)C2=O

> <InChI_Code_QSARr>
InChI=1S/C28H22N2O2/c1-17-9-13-19(14-10-17)29-23-7-3-5-21-25(23)28(32)26-22(27(21)31)6-4-8-24(26)30-20-15-11-18(2)12-16-20/h3-16,29-30H,1-2H3

> <InChI Key_QSARr>
YNPQDABMOAMHNC-UHFFFAOYSA-N

> <Salt_Solvent>


> <Salt_Solvent_ID>
0

> <Number of connected components>
1

$$$$
Molecule_1722
  Mrv2316 01072400032D          

 27 26  0  0  0  0            999 V2000
    3.2408   -3.0789    0.0000 O   0  0  0  0  0  0  0  0  0  0  0  0
    2.5263   -2.6664    0.0000 C   0  0  0  0  0  0  0  0  0  0  0  0
    2.5263   -1.8414    0.0000 O   0  0  0  0  0  0  0  0  0  0  0  0
    1.8118   -3.0789    0.0000 C   0  0  0  0  0  0  0  0  0  0  0  0
    1.0974   -2.6664    0.0000 N   0  0  0  0  0  0  0  0  0  0  0  0
    0.3829   -3.0789    0.0000 C   0  0  0  0  0  0  0  0  0  0  0  0
   -0.3316   -2.6664    0.0000 C   0  0  0  0  0  0  0  0  0  0  0  0
   -1.0460   -3.0789    0.0000 N   0  0  0  0  0  0  0  0  0  0  0  0
   -1.0460   -3.9039    0.0000 C   0  0  0  0  0  0  0  0  0  0  0  0
   -0.3316   -4.3164    0.0000 C   0  0  0  0  0  0  0  0  0  0  0  0
    0.3829   -3.9039    0.0000 O   0  0  0  0  0  0  0  0  0  0  0  0
   -0.3316   -5.1414    0.0000 O   0  0  0  0  0  0  0  0  0  0  0  0
   -1.7605   -2.6664    0.0000 C   0  0  0  0  0  0  0  0  0  0  0  0
   -2.4750   -3.0789    0.0000 C   0  0  0  0  0  0  0  0  0  0  0  0
   -3.1895   -2.6664    0.0000 N   0  0  0  0  0  0  0  0  0  0  0  0
   -3.9039   -3.0789    0.0000 C   0  0  0  0  0  0  0  0  0  0  0  0
   -4.6184   -2.6664    0.0000 C   0  0  0  0  0  0  0  0  0  0  0  0
   -5.3329   -3.0789    0.0000 O   0  0  0  0  0  0  0  0  0  0  0  0
   -4.6184   -1.8414    0.0000 O   0  0  0  0  0  0  0  0  0  0  0  0
   -3.1895   -1.8414    0.0000 C   0  0  0  0  0  0  0  0  0  0  0  0
   -2.4750   -1.4289    0.0000 C   0  0  0  0  0  0  0  0  0  0  0  0
   -2.4750   -0.6039    0.0000 O   0  0  0  0  0  0  0  0  0  0  0  0
   -1.7605   -1.8414    0.0000 O   0  0  0  0  0  0  0  0  0  0  0  0
    1.0974   -1.8414    0.0000 C   0  0  0  0  0  0  0  0  0  0  0  0
    0.3829   -1.4289    0.0000 C   0  0  0  0  0  0  0  0  0  0  0  0
   -0.3316   -1.8414    0.0000 O   0  0  0  0  0  0  0  0  0  0  0  0
    0.3829   -0.6039    0.0000 O   0  0  0  0  0  0  0  0  0  0  0  0
  1  2  1  0  0  0  0
  2  3  2  0  0  0  0
  2  4  1  0  0  0  0
  4  5  1  0  0  0  0
  5  6  1  0  0  0  0
  6  7  1  0  0  0  0
  7  8  1  0  0  0  0
  8  9  1  0  0  0  0
  9 10  1  0  0  0  0
 10 11  1  0  0  0  0
 10 12  2  0  0  0  0
  8 13  1  0  0  0  0
 13 14  1  0  0  0  0
 14 15  1  0  0  0  0
 15 16  1  0  0  0  0
 16 17  1  0  0  0  0
 17 18  1  0  0  0  0
 17 19  2  0  0  0  0
 15 20  1  0  0  0  0
 20 21  1  0  0  0  0
 21 22  1  0  0  0  0
 21 23  2  0  0  0  0
  5 24  1  0  0  0  0
 24 25  1  0  0  0  0
 25 26  1  0  0  0  0
 25 27  2  0  0  0  0
M  END
> <RowID>
1722

> <Original_SMILES>
[Na+].[Na+].[Na+].[Na+].[Na+].[O-]C(=O)CN(CCN(CC([O-])=O)CC([O-])=O)CCN(CC([O-])=O)CC([O-])=O

> <Canonical_QSARr>
OC(=O)CN(CCN(CC(O)=O)CC(O)=O)CCN(CC(O)=O)CC(O)=O

> <InChI_Code_QSARr>
InChI=1S/C14H23N3O10/c18-10(19)5-15(1-3-16(6-11(20)21)7-12(22)23)2-4-17(8-13(24)25)9-14(26)27/h1-9H2,(H,18,19)(H,20,21)(H,22,23)(H,24,25)(H,26,27)

> <InChI Key_QSARr>
QPCDCPDFJACHGM-UHFFFAOYSA-N

> <Salt_Solvent>
[Na+]

> <Salt_Solvent_ID>
110

> <Number of connected components>
6

$$$$
Molecule_1723
  Mrv2316 01072400032D          

  7  6  0  0  0  0            999 V2000
   -0.1914    0.7145    0.0000 O   0  0  0  0  0  0  0  0  0  0  0  0
    0.5230    1.1270    0.0000 C   0  0  0  0  0  0  0  0  0  0  0  0
    0.5230    1.9520    0.0000 O   0  0  0  0  0  0  0  0  0  0  0  0
    1.2375    0.7145    0.0000 C   0  0  0  0  0  0  0  0  0  0  0  0
    1.9520    1.1270    0.0000 N   0  0  0  0  0  0  0  0  0  0  0  0
    2.6664    0.7145    0.0000 C   0  0  0  0  0  0  0  0  0  0  0  0
    3.3809    1.1270    0.0000 O   0  0  0  0  0  0  0  0  0  0  0  0
  1  2  1  0  0  0  0
  2  3  2  0  0  0  0
  2  4  1  0  0  0  0
  4  5  1  0  0  0  0
  5  6  1  0  0  0  0
  6  7  1  0  0  0  0
M  END
> <RowID>
1723

> <Original_SMILES>
[Na+].[O-]C(=O)CNCO

> <Canonical_QSARr>
OCNCC(O)=O

> <InChI_Code_QSARr>
InChI=1S/C3H7NO3/c5-2-4-1-3(6)7/h4-5H,1-2H2,(H,6,7)

> <InChI Key_QSARr>
WBTIFBJEYFLFFW-UHFFFAOYSA-N

> <Salt_Solvent>
[Na+]

> <Salt_Solvent_ID>
110

> <Number of connected components>
2

$$$$
Molecule_1724
  Mrv2316 01072400032D          

  9  8  0  0  0  0            999 V2000
    1.0461    1.4289    0.0000 C   0  0  0  0  0  0  0  0  0  0  0  0
    1.7605    1.8414    0.0000 C   0  0  0  0  0  0  0  0  0  0  0  0
    2.4750    1.4289    0.0000 C   0  0  0  0  0  0  0  0  0  0  0  0
    3.1895    1.8414    0.0000 C   0  0  0  0  0  0  0  0  0  0  0  0
    3.9039    1.4289    0.0000 O   0  0  0  0  0  0  0  0  0  0  0  0
    4.6184    1.8414    0.0000 C   0  0  0  0  0  0  0  0  0  0  0  0
    4.6184    2.6664    0.0000 O   0  0  0  0  0  0  0  0  0  0  0  0
    5.3329    1.4289    0.0000 C   0  0  0  0  0  0  0  0  0  0  0  0
    6.0474    1.8414    0.0000 C   0  0  0  0  0  0  0  0  0  0  0  0
  1  2  1  0  0  0  0
  2  3  1  0  0  0  0
  3  4  1  0  0  0  0
  4  5  1  0  0  0  0
  5  6  1  0  0  0  0
  6  7  2  0  0  0  0
  6  8  1  0  0  0  0
  8  9  2  0  0  0  0
M  END
> <RowID>
1724

> <Original_SMILES>
CCCCOC(=O)C=C

> <Canonical_QSARr>
CCCCOC(=O)C=C

> <InChI_Code_QSARr>
InChI=1S/C7H12O2/c1-3-5-6-9-7(8)4-2/h4H,2-3,5-6H2,1H3

> <InChI Key_QSARr>
CQEYYJKEWSMYFG-UHFFFAOYSA-N

> <Salt_Solvent>


> <Salt_Solvent_ID>
0

> <Number of connected components>
1

$$$$
Molecule_1725
  Mrv2316 01072400032D          

 15 15  0  0  0  0            999 V2000
    2.1434   -5.5825    0.0000 C   0  0  0  0  0  0  0  0  0  0  0  0
    2.8579   -5.9950    0.0000 C   0  0  0  0  0  0  0  0  0  0  0  0
    3.5724   -5.5825    0.0000 C   0  0  0  0  0  0  0  0  0  0  0  0
    4.2868   -5.9950    0.0000 C   0  0  0  0  0  0  0  0  0  0  0  0
    5.0013   -5.5825    0.0000 C   0  0  0  0  0  0  0  0  0  0  0  0
    5.0013   -4.7575    0.0000 O   0  0  0  0  0  0  0  0  0  0  0  0
    5.7158   -5.9950    0.0000 O   0  0  0  0  0  0  0  0  0  0  0  0
    6.4302   -5.5825    0.0000 C   0  0  0  0  0  0  0  0  0  0  0  0
    7.1447   -5.9950    0.0000 C   0  0  0  0  0  0  0  0  0  0  0  0
    7.8592   -5.5825    0.0000 C   0  0  0  0  0  0  0  0  0  0  0  0
    8.5737   -5.9950    0.0000 C   0  0  0  0  0  0  0  0  0  0  0  0
    9.2881   -5.5825    0.0000 C   0  0  0  0  0  0  0  0  0  0  0  0
    9.2881   -4.7575    0.0000 C   0  0  0  0  0  0  0  0  0  0  0  0
    8.5737   -4.3450    0.0000 C   0  0  0  0  0  0  0  0  0  0  0  0
    7.8592   -4.7575    0.0000 C   0  0  0  0  0  0  0  0  0  0  0  0
  1  2  1  0  0  0  0
  2  3  1  0  0  0  0
  3  4  1  0  0  0  0
  4  5  1  0  0  0  0
  5  6  2  0  0  0  0
  5  7  1  0  0  0  0
  7  8  1  0  0  0  0
  8  9  1  0  0  0  0
  9 10  1  0  0  0  0
 11 10  1  0  0  0  0
 12 11  2  0  0  0  0
 13 12  1  0  0  0  0
 14 13  2  0  0  0  0
 15 14  1  0  0  0  0
 10 15  2  0  0  0  0
M  END
> <RowID>
1725

> <Original_SMILES>
CCCCC(=O)OCCC1C=CC=CC=1

> <Canonical_QSARr>
CCCCC(=O)OCCC1C=CC=CC=1

> <InChI_Code_QSARr>
InChI=1S/C13H18O2/c1-2-3-9-13(14)15-11-10-12-7-5-4-6-8-12/h4-8H,2-3,9-11H2,1H3

> <InChI Key_QSARr>
PDGPIBIURNPBSE-UHFFFAOYSA-N

> <Salt_Solvent>


> <Salt_Solvent_ID>
0

> <Number of connected components>
1

$$$$
Molecule_1726
  Mrv2316 01072400032D          

 18 17  0  0  0  0            999 V2000
    7.2336    5.0013    0.0000 C   0  0  0  0  0  0  0  0  0  0  0  0
    7.9481    5.4138    0.0000 C   0  0  0  0  0  0  0  0  0  0  0  0
    8.6625    5.0013    0.0000 C   0  0  0  0  0  0  0  0  0  0  0  0
    9.3770    5.4138    0.0000 C   0  0  0  0  0  0  0  0  0  0  0  0
   10.0915    5.0013    0.0000 C   0  0  0  0  0  0  0  0  0  0  0  0
   10.8060    5.4138    0.0000 C   0  0  0  0  0  0  0  0  0  0  0  0
   11.5204    5.0013    0.0000 C   0  0  0  0  0  0  0  0  0  0  0  0
   12.2349    5.4138    0.0000 C   0  0  0  0  0  0  0  0  0  0  0  0
   12.9494    5.0013    0.0000 C   0  0  0  0  0  0  0  0  0  0  0  0
   13.6638    5.4138    0.0000 C   0  0  0  0  0  0  0  0  0  0  0  0
   14.3783    5.0013    0.0000 C   0  0  0  0  0  0  0  0  0  0  0  0
   15.0928    5.4138    0.0000 C   0  0  0  0  0  0  0  0  0  0  0  0
   15.8072    5.0013    0.0000 C   0  0  0  0  0  0  0  0  0  0  0  0
   16.5217    5.4138    0.0000 C   0  0  0  0  0  0  0  0  0  0  0  0
   17.2362    5.0013    0.0000 C   0  0  0  0  0  0  0  0  0  0  0  0
   17.9507    5.4138    0.0000 C   0  0  0  0  0  0  0  0  0  0  0  0
   18.6651    5.0013    0.0000 C   0  0  0  0  0  0  0  0  0  0  0  0
   19.3796    5.4138    0.0000 C   0  0  0  0  0  0  0  0  0  0  0  0
  1  2  1  0  0  0  0
  2  3  1  0  0  0  0
  3  4  1  0  0  0  0
  4  5  1  0  0  0  0
  5  6  1  0  0  0  0
  6  7  1  0  0  0  0
  7  8  1  0  0  0  0
  8  9  1  0  0  0  0
  9 10  1  0  0  0  0
 10 11  1  0  0  0  0
 11 12  1  0  0  0  0
 12 13  1  0  0  0  0
 13 14  1  0  0  0  0
 14 15  1  0  0  0  0
 15 16  1  0  0  0  0
 16 17  1  0  0  0  0
 17 18  1  0  0  0  0
M  END
> <RowID>
1726

> <Original_SMILES>
CCCCCCCCCCCCCCCCCC

> <Canonical_QSARr>
CCCCCCCCCCCCCCCCCC

> <InChI_Code_QSARr>
InChI=1S/C18H38/c1-3-5-7-9-11-13-15-17-18-16-14-12-10-8-6-4-2/h3-18H2,1-2H3

> <InChI Key_QSARr>
RZJRJXONCZWCBN-UHFFFAOYSA-N

> <Salt_Solvent>


> <Salt_Solvent_ID>
0

> <Number of connected components>
1

$$$$
Molecule_1727
  Mrv2316 01072400032D          

  8  7  0  0  0  0            999 V2000
   -0.1914    0.7145    0.0000 C   0  0  0  0  0  0  0  0  0  0  0  0
    0.5230    1.1270    0.0000 C   0  0  0  0  0  0  0  0  0  0  0  0
    0.5230    1.9520    0.0000 C   0  0  0  0  0  0  0  0  0  0  0  0
    1.2375    0.7145    0.0000 C   0  0  0  0  0  0  0  0  0  0  0  0
    1.2375   -0.1105    0.0000 O   0  0  0  0  0  0  0  0  0  0  0  0
    1.9520    1.1270    0.0000 O   0  0  0  0  0  0  0  0  0  0  0  0
    2.6664    0.7145    0.0000 C   0  0  0  0  0  0  0  0  0  0  0  0
    3.3809    1.1270    0.0000 C   0  0  0  0  0  0  0  0  0  0  0  0
  1  2  1  0  0  0  0
  2  3  2  0  0  0  0
  2  4  1  0  0  0  0
  4  5  2  0  0  0  0
  4  6  1  0  0  0  0
  6  7  1  0  0  0  0
  7  8  1  0  0  0  0
M  END
> <RowID>
1727

> <Original_SMILES>
CC(=C)C(=O)OCC

> <Canonical_QSARr>
CC(=C)C(=O)OCC

> <InChI_Code_QSARr>
InChI=1S/C6H10O2/c1-4-8-6(7)5(2)3/h2,4H2,1,3H3

> <InChI Key_QSARr>
SUPCQIBBMFXVTL-UHFFFAOYSA-N

> <Salt_Solvent>


> <Salt_Solvent_ID>
0

> <Number of connected components>
1

$$$$
Molecule_1728
  Mrv2316 01072400032D          

 36 39  0  0  0  0            999 V2000
    0.3340   -5.1326    0.0000 C   0  0  0  0  0  0  0  0  0  0  0  0
    0.3340   -4.3076    0.0000 C   0  0  0  0  0  0  0  0  0  0  0  0
    1.0484   -3.8951    0.0000 C   0  0  0  0  0  0  0  0  0  0  0  0
    1.7629   -4.3076    0.0000 C   0  0  0  0  0  0  0  0  0  0  0  0
    2.4774   -3.8951    0.0000 C   0  0  0  0  0  0  0  0  0  0  0  0
    2.4774   -3.0701    0.0000 O   0  0  0  0  0  0  0  0  0  0  0  0
    3.1919   -4.3076    0.0000 O   0  0  0  0  0  0  0  0  0  0  0  0
    3.9063   -3.8951    0.0000 C   0  0  0  0  0  0  0  0  0  0  0  0
   -0.3805   -3.8951    0.0000 C   0  0  0  0  0  0  0  0  0  0  0  0
   -0.4667   -3.0746    0.0000 C   0  0  0  0  0  0  0  0  0  0  0  0
   -1.2737   -2.9031    0.0000 C   0  0  0  0  0  0  0  0  0  0  0  0
   -1.6862   -3.6175    0.0000 C   0  0  0  0  0  0  0  0  0  0  0  0
   -2.4932   -3.7891    0.0000 C   0  0  0  0  0  0  0  0  0  0  0  0
   -2.7481   -4.5737    0.0000 C   0  0  0  0  0  0  0  0  0  0  0  0
   -2.1961   -5.1868    0.0000 C   0  0  0  0  0  0  0  0  0  0  0  0
   -1.3891   -5.0153    0.0000 C   0  0  0  0  0  0  0  0  0  0  0  0
   -0.8371   -5.6283    0.0000 O   0  0  0  0  0  0  0  0  0  0  0  0
   -1.1342   -4.2306    0.0000 C   0  0  0  0  0  0  0  0  0  0  0  0
   -0.5211   -4.7827    0.0000 C   0  0  0  0  0  0  0  0  0  0  0  0
   -3.5551   -4.7452    0.0000 C   0  0  0  0  0  0  0  0  0  0  0  0
   -3.0031   -5.3583    0.0000 C   0  0  0  0  0  0  0  0  0  0  0  0
   -3.8100   -5.5298    0.0000 C   0  0  0  0  0  0  0  0  0  0  0  0
   -4.6170   -5.7014    0.0000 C   0  0  0  0  0  0  0  0  0  0  0  0
   -5.1690   -5.0883    0.0000 C   0  0  0  0  0  0  0  0  0  0  0  0
   -4.9141   -4.3036    0.0000 C   0  0  0  0  0  0  0  0  0  0  0  0
   -4.1071   -4.1321    0.0000 C   0  0  0  0  0  0  0  0  0  0  0  0
   -3.8522   -3.3475    0.0000 C   0  0  0  0  0  0  0  0  0  0  0  0
   -3.0452   -3.1760    0.0000 C   0  0  0  0  0  0  0  0  0  0  0  0
   -2.7903   -2.3914    0.0000 O   0  0  0  0  0  0  0  0  0  0  0  0
   -3.3423   -1.7783    0.0000 C   0  0  0  0  0  0  0  0  0  0  0  0
   -4.1493   -1.9498    0.0000 C   0  0  0  0  0  0  0  0  0  0  0  0
   -3.0874   -0.9936    0.0000 O   0  0  0  0  0  0  0  0  0  0  0  0
   -5.9760   -5.2598    0.0000 O   0  0  0  0  0  0  0  0  0  0  0  0
   -6.5280   -4.6467    0.0000 C   0  0  0  0  0  0  0  0  0  0  0  0
   -7.3350   -4.8182    0.0000 C   0  0  0  0  0  0  0  0  0  0  0  0
   -6.2731   -3.8621    0.0000 O   0  0  0  0  0  0  0  0  0  0  0  0
  1  2  1  0  0  0  0
  2  3  1  0  0  0  0
  3  4  1  0  0  0  0
  4  5  1  0  0  0  0
  5  6  2  0  0  0  0
  5  7  1  0  0  0  0
  7  8  1  0  0  0  0
  2  9  1  0  0  0  0
 10  9  1  0  0  0  0
 11 10  1  0  0  0  0
 12 11  1  0  0  0  0
 12 13  1  0  0  0  0
 14 13  1  0  0  0  0
 14 15  1  0  0  0  0
 15 16  1  0  0  0  0
 16 17  2  0  0  0  0
 16 18  1  0  0  0  0
  9 18  1  0  0  0  0
 18 12  1  0  0  0  0
 18 19  1  0  0  0  0
 20 14  1  0  0  0  0
 20 21  1  0  0  0  0
 20 22  1  0  0  0  0
 22 23  1  0  0  0  0
 23 24  1  0  0  0  0
 24 25  1  0  0  0  0
 25 26  1  0  0  0  0
 26 20  1  0  0  0  0
 27 26  1  0  0  0  0
 28 27  1  0  0  0  0
 13 28  1  0  0  0  0
 28 29  1  0  0  0  0
 29 30  1  0  0  0  0
 30 31  1  0  0  0  0
 30 32  2  0  0  0  0
 24 33  1  0  0  0  0
 33 34  1  0  0  0  0
 34 35  1  0  0  0  0
 34 36  2  0  0  0  0
M  END
> <RowID>
1728

> <Original_SMILES>
CC(CCC(=O)OC)C1CCC2C3C(CC(=O)C21C)C1(C)CCC(CC1CC3OC(C)=O)OC(C)=O

> <Canonical_QSARr>
CC(CCC(=O)OC)C1CCC2C3C(CC(=O)C21C)C1(C)CCC(CC1CC3OC(C)=O)OC(C)=O

> <InChI_Code_QSARr>
InChI=1S/C29H44O7/c1-16(7-10-26(33)34-6)21-8-9-22-27-23(15-25(32)29(21,22)5)28(4)12-11-20(35-17(2)30)13-19(28)14-24(27)36-18(3)31/h16,19-24,27H,7-15H2,1-6H3

> <InChI Key_QSARr>
GVIZCQOBODPSLY-UHFFFAOYSA-N

> <Salt_Solvent>


> <Salt_Solvent_ID>
0

> <Number of connected components>
1

$$$$
Molecule_1729
  Mrv2316 01072400032D          

 23 22  0  0  0  0            999 V2000
   10.4230    6.8427    0.0000 C   0  0  0  0  0  0  0  0  0  0  0  0
   11.1375    6.4302    0.0000 C   0  0  0  0  0  0  0  0  0  0  0  0
   11.8520    6.8427    0.0000 C   0  0  0  0  0  0  0  0  0  0  0  0
   12.5664    6.4302    0.0000 C   0  0  0  0  0  0  0  0  0  0  0  0
   13.2809    6.8427    0.0000 C   0  0  0  0  0  0  0  0  0  0  0  0
   13.9954    6.4302    0.0000 C   0  0  0  0  0  0  0  0  0  0  0  0
   14.7098    6.8427    0.0000 C   0  0  0  0  0  0  0  0  0  0  0  0
   15.4243    6.4302    0.0000 C   0  0  0  0  0  0  0  0  0  0  0  0
   15.4243    5.6052    0.0000 O   0  0  0  0  0  0  0  0  0  0  0  0
   16.1388    6.8427    0.0000 O   0  0  0  0  0  0  0  0  0  0  0  0
   16.8533    6.4302    0.0000 C   0  0  0  0  0  0  0  0  0  0  0  0
   17.5677    6.8427    0.0000 C   0  0  0  0  0  0  0  0  0  0  0  0
   18.2822    6.4302    0.0000 C   0  0  0  0  0  0  0  0  0  0  0  0
   18.9967    6.8427    0.0000 O   0  0  0  0  0  0  0  0  0  0  0  0
   19.7111    6.4302    0.0000 C   0  0  0  0  0  0  0  0  0  0  0  0
   19.7111    5.6052    0.0000 O   0  0  0  0  0  0  0  0  0  0  0  0
   20.4256    6.8427    0.0000 C   0  0  0  0  0  0  0  0  0  0  0  0
   21.1401    6.4302    0.0000 C   0  0  0  0  0  0  0  0  0  0  0  0
   21.8545    6.8427    0.0000 C   0  0  0  0  0  0  0  0  0  0  0  0
   22.5690    6.4302    0.0000 C   0  0  0  0  0  0  0  0  0  0  0  0
   23.2835    6.8427    0.0000 C   0  0  0  0  0  0  0  0  0  0  0  0
   23.9980    6.4302    0.0000 C   0  0  0  0  0  0  0  0  0  0  0  0
   24.7124    6.8427    0.0000 C   0  0  0  0  0  0  0  0  0  0  0  0
  1  2  1  0  0  0  0
  2  3  1  0  0  0  0
  3  4  1  0  0  0  0
  4  5  1  0  0  0  0
  5  6  1  0  0  0  0
  6  7  1  0  0  0  0
  7  8  1  0  0  0  0
  8  9  2  0  0  0  0
  8 10  1  0  0  0  0
 10 11  1  0  0  0  0
 11 12  1  0  0  0  0
 12 13  1  0  0  0  0
 13 14  1  0  0  0  0
 14 15  1  0  0  0  0
 15 16  2  0  0  0  0
 15 17  1  0  0  0  0
 17 18  1  0  0  0  0
 18 19  1  0  0  0  0
 19 20  1  0  0  0  0
 20 21  1  0  0  0  0
 21 22  1  0  0  0  0
 22 23  1  0  0  0  0
M  END
> <RowID>
1729

> <Original_SMILES>
CCCCCCCC(=O)OCCCOC(=O)CCCCCCC

> <Canonical_QSARr>
CCCCCCCC(=O)OCCCOC(=O)CCCCCCC

> <InChI_Code_QSARr>
InChI=1S/C19H36O4/c1-3-5-7-9-11-14-18(20)22-16-13-17-23-19(21)15-12-10-8-6-4-2/h3-17H2,1-2H3

> <InChI Key_QSARr>
XBBMJUWOCGWHRP-UHFFFAOYSA-N

> <Salt_Solvent>


> <Salt_Solvent_ID>
0

> <Number of connected components>
1

$$$$
Molecule_1730
  Mrv2316 01072400032D          

  6  5  0  0  0  0            999 V2000
    2.4750   -1.4289    0.0000 C   0  0  0  0  0  0  0  0  0  0  0  0
    2.0625   -0.7145    0.0000 O   0  0  0  0  0  0  0  0  0  0  0  0
    1.2375   -0.7145    0.0000 C   0  0  0  0  0  0  0  0  0  0  0  0
    0.8250   -1.4289    0.0000 O   0  0  0  0  0  0  0  0  0  0  0  0
    0.8250    0.0000    0.0000 O   0  0  0  0  0  0  0  0  0  0  0  0
    0.0000    0.0000    0.0000 C   0  0  0  0  0  0  0  0  0  0  0  0
  1  2  1  0  0  0  0
  2  3  1  0  0  0  0
  3  4  2  0  0  0  0
  3  5  1  0  0  0  0
  5  6  1  0  0  0  0
M  END
> <RowID>
1730

> <Original_SMILES>
COC(=O)OC

> <Canonical_QSARr>
COC(=O)OC

> <InChI_Code_QSARr>
InChI=1S/C3H6O3/c1-5-3(4)6-2/h1-2H3

> <InChI Key_QSARr>
IEJIGPNLZYLLBP-UHFFFAOYSA-N

> <Salt_Solvent>


> <Salt_Solvent_ID>
0

> <Number of connected components>
1

$$$$
Molecule_1733
  Mrv2316 01072400032D          

 14 13  0  0  0  0            999 V2000
    0.8546    2.9684    0.0000 O   0  0  0  0  0  0  0  0  0  0  0  0
    1.5691    2.5559    0.0000 S   0  0  0  0  0  0  0  0  0  0  0  0
    1.1566    1.8414    0.0000 O   0  0  0  0  0  0  0  0  0  0  0  0
    1.9816    3.2704    0.0000 O   0  0  0  0  0  0  0  0  0  0  0  0
    2.2836    2.1434    0.0000 O   0  0  0  0  0  0  0  0  0  0  0  0
    2.9980    2.5559    0.0000 C   0  0  0  0  0  0  0  0  0  0  0  0
    3.7125    2.1434    0.0000 C   0  0  0  0  0  0  0  0  0  0  0  0
    4.4270    2.5559    0.0000 C   0  0  0  0  0  0  0  0  0  0  0  0
    5.1414    2.1434    0.0000 C   0  0  0  0  0  0  0  0  0  0  0  0
    5.8559    2.5559    0.0000 C   0  0  0  0  0  0  0  0  0  0  0  0
    6.5704    2.1434    0.0000 C   0  0  0  0  0  0  0  0  0  0  0  0
    7.2849    2.5559    0.0000 C   0  0  0  0  0  0  0  0  0  0  0  0
    7.9993    2.1434    0.0000 C   0  0  0  0  0  0  0  0  0  0  0  0
    8.7138    2.5559    0.0000 C   0  0  0  0  0  0  0  0  0  0  0  0
  1  2  1  0  0  0  0
  2  3  2  0  0  0  0
  2  4  2  0  0  0  0
  2  5  1  0  0  0  0
  5  6  1  0  0  0  0
  6  7  1  0  0  0  0
  7  8  1  0  0  0  0
  8  9  1  0  0  0  0
  9 10  1  0  0  0  0
 10 11  1  0  0  0  0
 11 12  1  0  0  0  0
 12 13  1  0  0  0  0
 13 14  1  0  0  0  0
M  END
> <RowID>
1733

> <Original_SMILES>
[Na+].CCCCCCCCCOS([O-])(=O)=O

> <Canonical_QSARr>
CCCCCCCCCOS(O)(=O)=O

> <InChI_Code_QSARr>
InChI=1S/C9H20O4S/c1-2-3-4-5-6-7-8-9-13-14(10,11)12/h2-9H2,1H3,(H,10,11,12)

> <InChI Key_QSARr>
KETHQOOVMIVLCH-UHFFFAOYSA-N

> <Salt_Solvent>
[Na+]

> <Salt_Solvent_ID>
110

> <Number of connected components>
2

$$$$
Molecule_1734
  Mrv2316 01072400032D          

 28 27  0  0  0  0            999 V2000
   -2.0329    2.8579    0.0000 C   0  0  0  0  0  0  0  0  0  0  0  0
   -1.6204    2.1434    0.0000 C   0  0  0  0  0  0  0  0  0  0  0  0
   -0.7954    2.1434    0.0000 O   0  0  0  0  0  0  0  0  0  0  0  0
   -2.0329    1.4290    0.0000 O   0  0  0  0  0  0  0  0  0  0  0  0
   -1.6204    0.7145    0.0000 C   0  0  0  0  0  0  0  0  0  0  0  0
   -2.3348    0.3020    0.0000 C   0  0  0  0  0  0  0  0  0  0  0  0
   -3.0493    0.7145    0.0000 C   0  0  0  0  0  0  0  0  0  0  0  0
   -3.0493    1.5395    0.0000 O   0  0  0  0  0  0  0  0  0  0  0  0
   -3.7638    0.3020    0.0000 O   0  0  0  0  0  0  0  0  0  0  0  0
   -4.4782    0.7145    0.0000 C   0  0  0  0  0  0  0  0  0  0  0  0
   -5.1927    0.3020    0.0000 C   0  0  0  0  0  0  0  0  0  0  0  0
   -5.9072    0.7145    0.0000 C   0  0  0  0  0  0  0  0  0  0  0  0
   -6.6217    0.3020    0.0000 C   0  0  0  0  0  0  0  0  0  0  0  0
   -0.9059    1.1270    0.0000 C   0  0  0  0  0  0  0  0  0  0  0  0
   -0.1914    0.7145    0.0000 C   0  0  0  0  0  0  0  0  0  0  0  0
   -0.1914   -0.1105    0.0000 O   0  0  0  0  0  0  0  0  0  0  0  0
    0.5231    1.1270    0.0000 O   0  0  0  0  0  0  0  0  0  0  0  0
    1.2375    0.7145    0.0000 C   0  0  0  0  0  0  0  0  0  0  0  0
    1.9520    1.1270    0.0000 C   0  0  0  0  0  0  0  0  0  0  0  0
    2.6665    0.7145    0.0000 C   0  0  0  0  0  0  0  0  0  0  0  0
    3.3809    1.1270    0.0000 C   0  0  0  0  0  0  0  0  0  0  0  0
   -1.2079    0.0000    0.0000 C   0  0  0  0  0  0  0  0  0  0  0  0
   -0.5404   -0.4849    0.0000 O   0  0  0  0  0  0  0  0  0  0  0  0
   -1.6204   -0.7145    0.0000 O   0  0  0  0  0  0  0  0  0  0  0  0
   -1.2079   -1.4289    0.0000 C   0  0  0  0  0  0  0  0  0  0  0  0
   -1.6204   -2.1434    0.0000 C   0  0  0  0  0  0  0  0  0  0  0  0
   -1.2079   -2.8579    0.0000 C   0  0  0  0  0  0  0  0  0  0  0  0
   -1.6204   -3.5723    0.0000 C   0  0  0  0  0  0  0  0  0  0  0  0
  1  2  1  0  0  0  0
  2  3  2  0  0  0  0
  2  4  1  0  0  0  0
  4  5  1  0  0  0  0
  5  6  1  0  0  0  0
  6  7  1  0  0  0  0
  7  8  2  0  0  0  0
  7  9  1  0  0  0  0
  9 10  1  0  0  0  0
 10 11  1  0  0  0  0
 11 12  1  0  0  0  0
 12 13  1  0  0  0  0
  5 14  1  0  0  0  0
 14 15  1  0  0  0  0
 15 16  2  0  0  0  0
 15 17  1  0  0  0  0
 17 18  1  0  0  0  0
 18 19  1  0  0  0  0
 19 20  1  0  0  0  0
 20 21  1  0  0  0  0
  5 22  1  0  0  0  0
 22 23  2  0  0  0  0
 22 24  1  0  0  0  0
 24 25  1  0  0  0  0
 25 26  1  0  0  0  0
 26 27  1  0  0  0  0
 27 28  1  0  0  0  0
M  END
> <RowID>
1734

> <Original_SMILES>
CC(=O)OC(CC(=O)OCCCC)(CC(=O)OCCCC)C(=O)OCCCC

> <Canonical_QSARr>
CC(=O)OC(CC(=O)OCCCC)(CC(=O)OCCCC)C(=O)OCCCC

> <InChI_Code_QSARr>
InChI=1S/C20H34O8/c1-5-8-11-25-17(22)14-20(28-16(4)21,19(24)27-13-10-7-3)15-18(23)26-12-9-6-2/h5-15H2,1-4H3

> <InChI Key_QSARr>
QZCLKYGREBVARF-UHFFFAOYSA-N

> <Salt_Solvent>


> <Salt_Solvent_ID>
0

> <Number of connected components>
1

$$$$
Molecule_1735
  Mrv2316 01072400032D          

 10 11  0  0  0  0            999 V2000
    1.4289   -1.6500    0.0000 C   0  0  0  0  0  0  0  0  0  0  0  0
    0.7145   -1.2375    0.0000 C   0  0  0  0  0  0  0  0  0  0  0  0
    0.7145   -0.4125    0.0000 C   0  0  0  0  0  0  0  0  0  0  0  0
    1.4289   -0.0000    0.0000 C   0  0  0  0  0  0  0  0  0  0  0  0
    2.1434   -0.4125    0.0000 C   0  0  0  0  0  0  0  0  0  0  0  0
    2.8579    0.0000    0.0000 C   0  0  0  0  0  0  0  0  0  0  0  0
    3.5724   -0.4125    0.0000 C   0  0  0  0  0  0  0  0  0  0  0  0
    3.5724   -1.2375    0.0000 C   0  0  0  0  0  0  0  0  0  0  0  0
    2.8579   -1.6500    0.0000 C   0  0  0  0  0  0  0  0  0  0  0  0
    2.1434   -1.2375    0.0000 C   0  0  0  0  0  0  0  0  0  0  0  0
  2  1  2  0  0  0  0
  3  2  1  0  0  0  0
  4  3  2  0  0  0  0
  5  4  1  0  0  0  0
  5  6  2  0  0  0  0
  6  7  1  0  0  0  0
  7  8  2  0  0  0  0
  8  9  1  0  0  0  0
  9 10  2  0  0  0  0
  1 10  1  0  0  0  0
 10  5  1  0  0  0  0
M  END
> <RowID>
1735

> <Original_SMILES>
C1=CC=CC2=CC=CC=C21

> <Canonical_QSARr>
C1=CC=CC2=CC=CC=C21

> <InChI_Code_QSARr>
InChI=1S/C10H8/c1-2-6-10-8-4-3-7-9(10)5-1/h1-8H

> <InChI Key_QSARr>
UFWIBTONFRDIAS-UHFFFAOYSA-N

> <Salt_Solvent>


> <Salt_Solvent_ID>
0

> <Number of connected components>
1

$$$$
Molecule_1736
  Mrv2316 01072400032D          

 24 23  0  0  0  0            999 V2000
    9.7085    6.4302    0.0000 C   0  0  0  0  0  0  0  0  0  0  0  0
   10.4230    6.8427    0.0000 C   0  0  0  0  0  0  0  0  0  0  0  0
   10.4230    7.6677    0.0000 C   0  0  0  0  0  0  0  0  0  0  0  0
   11.1375    6.4302    0.0000 C   0  0  0  0  0  0  0  0  0  0  0  0
   11.1375    5.6052    0.0000 O   0  0  0  0  0  0  0  0  0  0  0  0
   11.8520    6.8427    0.0000 O   0  0  0  0  0  0  0  0  0  0  0  0
   12.5664    6.4302    0.0000 C   0  0  0  0  0  0  0  0  0  0  0  0
   13.2809    6.8427    0.0000 C   0  0  0  0  0  0  0  0  0  0  0  0
   13.9954    6.4302    0.0000 C   0  0  0  0  0  0  0  0  0  0  0  0
   14.7098    6.8427    0.0000 C   0  0  0  0  0  0  0  0  0  0  0  0
   15.4243    6.4302    0.0000 C   0  0  0  0  0  0  0  0  0  0  0  0
   16.1388    6.8427    0.0000 C   0  0  0  0  0  0  0  0  0  0  0  0
   16.8533    6.4302    0.0000 C   0  0  0  0  0  0  0  0  0  0  0  0
   17.5677    6.8427    0.0000 C   0  0  0  0  0  0  0  0  0  0  0  0
   18.2822    6.4302    0.0000 C   0  0  0  0  0  0  0  0  0  0  0  0
   18.9967    6.8427    0.0000 C   0  0  0  0  0  0  0  0  0  0  0  0
   19.7111    6.4302    0.0000 C   0  0  0  0  0  0  0  0  0  0  0  0
   20.4256    6.8427    0.0000 C   0  0  0  0  0  0  0  0  0  0  0  0
   21.1401    6.4302    0.0000 C   0  0  0  0  0  0  0  0  0  0  0  0
   21.8546    6.8427    0.0000 C   0  0  0  0  0  0  0  0  0  0  0  0
   22.5690    6.4302    0.0000 C   0  0  0  0  0  0  0  0  0  0  0  0
   23.2835    6.8427    0.0000 C   0  0  0  0  0  0  0  0  0  0  0  0
   23.9980    6.4302    0.0000 C   0  0  0  0  0  0  0  0  0  0  0  0
   24.7124    6.8427    0.0000 C   0  0  0  0  0  0  0  0  0  0  0  0
  1  2  1  0  0  0  0
  2  3  2  0  0  0  0
  2  4  1  0  0  0  0
  4  5  2  0  0  0  0
  4  6  1  0  0  0  0
  6  7  1  0  0  0  0
  7  8  1  0  0  0  0
  8  9  1  0  0  0  0
  9 10  1  0  0  0  0
 10 11  1  0  0  0  0
 11 12  1  0  0  0  0
 12 13  1  0  0  0  0
 13 14  1  0  0  0  0
 14 15  1  0  0  0  0
 15 16  1  0  0  0  0
 16 17  1  0  0  0  0
 17 18  1  0  0  0  0
 18 19  1  0  0  0  0
 19 20  1  0  0  0  0
 20 21  1  0  0  0  0
 21 22  1  0  0  0  0
 22 23  1  0  0  0  0
 23 24  1  0  0  0  0
M  END
> <RowID>
1736

> <Original_SMILES>
CC(=C)C(=O)OCCCCCCCCCCCCCCCCCC

> <Canonical_QSARr>
CC(=C)C(=O)OCCCCCCCCCCCCCCCCCC

> <InChI_Code_QSARr>
InChI=1S/C22H42O2/c1-4-5-6-7-8-9-10-11-12-13-14-15-16-17-18-19-20-24-22(23)21(2)3/h2,4-20H2,1,3H3

> <InChI Key_QSARr>
HMZGPNHSPWNGEP-UHFFFAOYSA-N

> <Salt_Solvent>


> <Salt_Solvent_ID>
0

> <Number of connected components>
1

$$$$
Molecule_1737
  Mrv2316 01072400032D          

 30 34  0  0  0  0            999 V2000
    1.1655    0.0727    0.0000 Cl  0  0  0  0  0  0  0  0  0  0  0  0
    0.6514    0.6140    0.0000 C   0  0  0  0  0  0  0  0  0  0  0  0
    1.2830    1.3438    0.0000 Cl  0  0  0  0  0  0  0  0  0  0  0  0
    0.8577   -0.2110    0.0000 C   0  0  0  0  0  0  0  0  0  0  0  0
    0.6213   -1.0860    0.0000 Cl  0  0  0  0  0  0  0  0  0  0  0  0
    1.5721    0.2015    0.0000 C   0  0  0  0  0  0  0  0  0  0  0  0
    2.1555   -0.3819    0.0000 C   0  0  0  0  0  0  0  0  0  0  0  0
    2.9805   -0.3819    0.0000 C   0  0  0  0  0  0  0  0  0  0  0  0
    3.6766    0.2317    0.0000 C   0  0  0  0  0  0  0  0  0  0  0  0
    3.6766    1.0567    0.0000 C   0  0  0  0  0  0  0  0  0  0  0  0
    4.2783    1.4390    0.0000 C   0  0  0  0  0  0  0  0  0  0  0  0
    4.4519    2.2966    0.0000 Cl  0  0  0  0  0  0  0  0  0  0  0  0
    4.9928    1.0265    0.0000 C   0  0  0  0  0  0  0  0  0  0  0  0
    5.7454    1.4513    0.0000 Cl  0  0  0  0  0  0  0  0  0  0  0  0
    4.9928    0.2015    0.0000 C   0  0  0  0  0  0  0  0  0  0  0  0
    5.7450   -0.2239    0.0000 Cl  0  0  0  0  0  0  0  0  0  0  0  0
    4.2783   -0.2110    0.0000 C   0  0  0  0  0  0  0  0  0  0  0  0
    4.4542   -1.0690    0.0000 Cl  0  0  0  0  0  0  0  0  0  0  0  0
    4.0721    0.6140    0.0000 C   0  0  0  0  0  0  0  0  0  0  0  0
    3.2337    0.2072    0.0000 Cl  0  0  0  0  0  0  0  0  0  0  0  0
    3.2040    0.7907    0.0000 Cl  0  0  0  0  0  0  0  0  0  0  0  0
    2.9805    1.6099    0.0000 C   0  0  0  0  0  0  0  0  0  0  0  0
    2.1555    1.6099    0.0000 C   0  0  0  0  0  0  0  0  0  0  0  0
    1.5721    1.0265    0.0000 C   0  0  0  0  0  0  0  0  0  0  0  0
    0.8577    1.4390    0.0000 C   0  0  0  0  0  0  0  0  0  0  0  0
    0.6701    2.3065    0.0000 Cl  0  0  0  0  0  0  0  0  0  0  0  0
    0.1432    1.0265    0.0000 C   0  0  0  0  0  0  0  0  0  0  0  0
   -0.6161    1.4537    0.0000 Cl  0  0  0  0  0  0  0  0  0  0  0  0
    0.1432    0.2015    0.0000 C   0  0  0  0  0  0  0  0  0  0  0  0
   -0.6214   -0.2176    0.0000 Cl  0  0  0  0  0  0  0  0  0  0  0  0
  1  2  1  0  0  0  0
  2  3  1  0  0  0  0
  4  2  1  0  0  0  0
  4  5  1  0  0  0  0
  4  6  1  0  0  0  0
  7  6  1  0  0  0  0
  8  7  1  0  0  0  0
  9  8  1  0  0  0  0
  9 10  1  0  0  0  0
 10 11  1  0  0  0  0
 11 12  1  0  0  0  0
 13 11  1  0  0  0  0
 13 14  1  0  0  0  0
 15 13  2  0  0  0  0
 15 16  1  0  0  0  0
 17 15  1  0  0  0  0
 17  9  1  0  0  0  0
 17 18  1  0  0  0  0
 19 17  1  0  0  0  0
 11 19  1  0  0  0  0
 19 20  1  0  0  0  0
 19 21  1  0  0  0  0
 22 10  1  0  0  0  0
 23 22  1  0  0  0  0
 24 23  1  0  0  0  0
  6 24  1  0  0  0  0
 24 25  1  0  0  0  0
  2 25  1  0  0  0  0
 25 26  1  0  0  0  0
 25 27  1  0  0  0  0
 27 28  1  0  0  0  0
 27 29  2  0  0  0  0
 29  4  1  0  0  0  0
 29 30  1  0  0  0  0
M  END
> <RowID>
1737

> <Original_SMILES>
ClC1(Cl)C2(Cl)C3CCC4C(CCC3C1(Cl)C(Cl)=C2Cl)C1(Cl)C(Cl)=C(Cl)C4(Cl)C1(Cl)Cl

> <Canonical_QSARr>
ClC1(Cl)C2(Cl)C3CCC4C(CCC3C1(Cl)C(Cl)=C2Cl)C1(Cl)C(Cl)=C(Cl)C4(Cl)C1(Cl)Cl

> <InChI_Code_QSARr>
InChI=1S/C18H12Cl12/c19-9-10(20)15(25)7-3-4-8-6(2-1-5(7)13(9,23)17(15,27)28)14(24)11(21)12(22)16(8,26)18(14,29)30/h5-8H,1-4H2

> <InChI Key_QSARr>
UGQQAJOWXNCOPY-UHFFFAOYSA-N

> <Salt_Solvent>


> <Salt_Solvent_ID>
0

> <Number of connected components>
1

$$$$
Molecule_1738
  Mrv2316 01072400032D          

 29 30  0  0  0  0            999 V2000
    0.8377   -7.1974    0.0000 C   0  0  0  0  0  0  0  0  0  0  0  0
    1.5521   -6.7849    0.0000 C   0  0  0  0  0  0  0  0  0  0  0  0
    1.9646   -7.4994    0.0000 C   0  0  0  0  0  0  0  0  0  0  0  0
    1.1396   -6.0704    0.0000 C   0  0  0  0  0  0  0  0  0  0  0  0
    2.2666   -6.3724    0.0000 C   0  0  0  0  0  0  0  0  0  0  0  0
    2.2666   -5.5474    0.0000 C   0  0  0  0  0  0  0  0  0  0  0  0
    3.0916   -5.5474    0.0000 C   0  0  0  0  0  0  0  0  0  0  0  0
    1.4416   -5.5474    0.0000 C   0  0  0  0  0  0  0  0  0  0  0  0
    2.2666   -4.7224    0.0000 C   0  0  0  0  0  0  0  0  0  0  0  0
    2.9811   -4.3099    0.0000 C   0  0  0  0  0  0  0  0  0  0  0  0
    2.9811   -3.4849    0.0000 C   0  0  0  0  0  0  0  0  0  0  0  0
    2.2666   -3.0724    0.0000 C   0  0  0  0  0  0  0  0  0  0  0  0
    2.2666   -2.2474    0.0000 N   0  0  0  0  0  0  0  0  0  0  0  0
    1.5521   -1.8349    0.0000 C   0  0  0  0  0  0  0  0  0  0  0  0
    1.5521   -1.0099    0.0000 C   0  0  0  0  0  0  0  0  0  0  0  0
    0.8377   -0.5974    0.0000 C   0  0  0  0  0  0  0  0  0  0  0  0
    0.1232   -1.0099    0.0000 C   0  0  0  0  0  0  0  0  0  0  0  0
   -0.5913   -0.5974    0.0000 C   0  0  0  0  0  0  0  0  0  0  0  0
   -0.1788    0.1171    0.0000 C   0  0  0  0  0  0  0  0  0  0  0  0
   -1.0038   -1.3119    0.0000 C   0  0  0  0  0  0  0  0  0  0  0  0
   -1.3058   -0.1849    0.0000 C   0  0  0  0  0  0  0  0  0  0  0  0
   -2.0202   -0.5974    0.0000 C   0  0  0  0  0  0  0  0  0  0  0  0
   -2.7347   -1.0099    0.0000 C   0  0  0  0  0  0  0  0  0  0  0  0
   -2.4327    0.1171    0.0000 C   0  0  0  0  0  0  0  0  0  0  0  0
   -1.6077   -1.3119    0.0000 C   0  0  0  0  0  0  0  0  0  0  0  0
    0.1232   -1.8349    0.0000 C   0  0  0  0  0  0  0  0  0  0  0  0
    0.8377   -2.2474    0.0000 C   0  0  0  0  0  0  0  0  0  0  0  0
    1.5521   -3.4849    0.0000 C   0  0  0  0  0  0  0  0  0  0  0  0
    1.5521   -4.3099    0.0000 C   0  0  0  0  0  0  0  0  0  0  0  0
  1  2  1  0  0  0  0
  2  3  1  0  0  0  0
  2  4  1  0  0  0  0
  2  5  1  0  0  0  0
  5  6  1  0  0  0  0
  6  7  1  0  0  0  0
  6  8  1  0  0  0  0
  6  9  1  0  0  0  0
 10  9  1  0  0  0  0
 11 10  2  0  0  0  0
 12 11  1  0  0  0  0
 12 13  1  0  0  0  0
 13 14  1  0  0  0  0
 15 14  1  0  0  0  0
 16 15  2  0  0  0  0
 17 16  1  0  0  0  0
 17 18  1  0  0  0  0
 18 19  1  0  0  0  0
 18 20  1  0  0  0  0
 18 21  1  0  0  0  0
 21 22  1  0  0  0  0
 22 23  1  0  0  0  0
 22 24  1  0  0  0  0
 22 25  1  0  0  0  0
 26 17  2  0  0  0  0
 27 26  1  0  0  0  0
 14 27  2  0  0  0  0
 28 12  2  0  0  0  0
 29 28  1  0  0  0  0
  9 29  2  0  0  0  0
M  END
> <RowID>
1738

> <Original_SMILES>
CC(C)(C)CC(C)(C)C1C=CC(=CC=1)NC1C=CC(=CC=1)C(C)(C)CC(C)(C)C

> <Canonical_QSARr>
CC(C)(C)CC(C)(C)C1C=CC(=CC=1)NC1C=CC(=CC=1)C(C)(C)CC(C)(C)C

> <InChI_Code_QSARr>
InChI=1S/C28H43N/c1-25(2,3)19-27(7,8)21-11-15-23(16-12-21)29-24-17-13-22(14-18-24)28(9,10)20-26(4,5)6/h11-18,29H,19-20H2,1-10H3

> <InChI Key_QSARr>
GQBHYWDCHSZDQU-UHFFFAOYSA-N

> <Salt_Solvent>


> <Salt_Solvent_ID>
0

> <Number of connected components>
1

$$$$
Molecule_1739
  Mrv2316 01072400032D          

 12 11  0  0  0  0            999 V2000
    2.2836    2.1434    0.0000 C   0  0  0  0  0  0  0  0  0  0  0  0
    2.9980    2.5559    0.0000 C   0  0  0  0  0  0  0  0  0  0  0  0
    2.9980    3.3809    0.0000 C   0  0  0  0  0  0  0  0  0  0  0  0
    3.7125    2.1434    0.0000 C   0  0  0  0  0  0  0  0  0  0  0  0
    3.7125    1.3184    0.0000 O   0  0  0  0  0  0  0  0  0  0  0  0
    4.4270    2.5559    0.0000 N   0  0  0  0  0  0  0  0  0  0  0  0
    5.1414    2.1434    0.0000 C   0  0  0  0  0  0  0  0  0  0  0  0
    5.8559    2.5559    0.0000 O   0  0  0  0  0  0  0  0  0  0  0  0
    6.5704    2.1434    0.0000 C   0  0  0  0  0  0  0  0  0  0  0  0
    7.2849    2.5559    0.0000 C   0  0  0  0  0  0  0  0  0  0  0  0
    7.9993    2.1434    0.0000 C   0  0  0  0  0  0  0  0  0  0  0  0
    8.7138    2.5559    0.0000 C   0  0  0  0  0  0  0  0  0  0  0  0
  1  2  1  0  0  0  0
  2  3  2  0  0  0  0
  2  4  1  0  0  0  0
  4  5  2  0  0  0  0
  4  6  1  0  0  0  0
  6  7  1  0  0  0  0
  7  8  1  0  0  0  0
  8  9  1  0  0  0  0
  9 10  1  0  0  0  0
 10 11  1  0  0  0  0
 11 12  1  0  0  0  0
M  END
> <RowID>
1739

> <Original_SMILES>
CC(=C)C(=O)NCOCCCC

> <Canonical_QSARr>
CC(=C)C(=O)NCOCCCC

> <InChI_Code_QSARr>
InChI=1S/C9H17NO2/c1-4-5-6-12-7-10-9(11)8(2)3/h2,4-7H2,1,3H3,(H,10,11)

> <InChI Key_QSARr>
ADGJZVKOKVENDN-UHFFFAOYSA-N

> <Salt_Solvent>


> <Salt_Solvent_ID>
0

> <Number of connected components>
1

$$$$
Molecule_1740
  Mrv2316 01072400032D          

 20 19  0  0  0  0            999 V2000
    5.0627    1.0005    0.0000 O   0  0  0  0  0  0  0  0  0  0  0  0
    5.8729    1.1564    0.0000 C   0  0  0  0  0  0  0  0  0  0  0  0
    6.1429    1.9360    0.0000 O   0  0  0  0  0  0  0  0  0  0  0  0
    6.4129    0.5328    0.0000 C   0  0  0  0  0  0  0  0  0  0  0  0
    6.1429   -0.2467    0.0000 N   0  0  0  0  0  0  0  0  0  0  0  0
    5.3328   -0.4027    0.0000 C   0  0  0  0  0  0  0  0  0  0  0  0
    5.0627   -1.1822    0.0000 C   0  0  0  0  0  0  0  0  0  0  0  0
    4.2526   -1.3381    0.0000 N   0  0  0  0  0  0  0  0  0  0  0  0
    3.9825   -2.1177    0.0000 C   0  0  0  0  0  0  0  0  0  0  0  0
    4.5226   -2.7413    0.0000 C   0  0  0  0  0  0  0  0  0  0  0  0
    5.3328   -2.5854    0.0000 O   0  0  0  0  0  0  0  0  0  0  0  0
    4.2526   -3.5209    0.0000 O   0  0  0  0  0  0  0  0  0  0  0  0
    3.7125   -0.7145    0.0000 C   0  0  0  0  0  0  0  0  0  0  0  0
    2.9024   -0.8704    0.0000 C   0  0  0  0  0  0  0  0  0  0  0  0
    2.3623   -0.2467    0.0000 O   0  0  0  0  0  0  0  0  0  0  0  0
    2.6323   -1.6499    0.0000 O   0  0  0  0  0  0  0  0  0  0  0  0
    6.6830   -0.8704    0.0000 C   0  0  0  0  0  0  0  0  0  0  0  0
    7.4931   -0.7145    0.0000 C   0  0  0  0  0  0  0  0  0  0  0  0
    7.7632    0.0651    0.0000 O   0  0  0  0  0  0  0  0  0  0  0  0
    8.0332   -1.3381    0.0000 O   0  0  0  0  0  0  0  0  0  0  0  0
  1  2  1  0  0  0  0
  2  3  2  0  0  0  0
  2  4  1  0  0  0  0
  4  5  1  0  0  0  0
  5  6  1  0  0  0  0
  6  7  1  0  0  0  0
  7  8  1  0  0  0  0
  8  9  1  0  0  0  0
  9 10  1  0  0  0  0
 10 11  1  0  0  0  0
 10 12  2  0  0  0  0
  8 13  1  0  0  0  0
 13 14  1  0  0  0  0
 14 15  2  0  0  0  0
 14 16  1  0  0  0  0
  5 17  1  0  0  0  0
 17 18  1  0  0  0  0
 18 19  1  0  0  0  0
 18 20  2  0  0  0  0
M  END
> <RowID>
1740

> <Original_SMILES>
[K+].[K+].[K+].[O-]C(=O)CN(CC(O)=O)CCN(CC([O-])=O)CC([O-])=O

> <Canonical_QSARr>
OC(=O)CN(CC(O)=O)CCN(CC(O)=O)CC(O)=O

> <InChI_Code_QSARr>
InChI=1S/C10H16N2O8/c13-7(14)3-11(4-8(15)16)1-2-12(5-9(17)18)6-10(19)20/h1-6H2,(H,13,14)(H,15,16)(H,17,18)(H,19,20)

> <InChI Key_QSARr>
KCXVZYZYPLLWCC-UHFFFAOYSA-N

> <Salt_Solvent>
[K+]

> <Salt_Solvent_ID>
190

> <Number of connected components>
4

$$$$
Molecule_1741
  Mrv2316 01072400032D          

 32 35  0  0  0  0            999 V2000
    5.7158   -7.2961    0.0000 C   0  0  0  0  0  0  0  0  0  0  0  0
    6.4302   -6.8836    0.0000 C   0  0  0  0  0  0  0  0  0  0  0  0
    7.1447   -7.2961    0.0000 C   0  0  0  0  0  0  0  0  0  0  0  0
    7.8592   -6.8836    0.0000 C   0  0  0  0  0  0  0  0  0  0  0  0
    8.5736   -7.2961    0.0000 C   0  0  0  0  0  0  0  0  0  0  0  0
    9.2881   -6.8836    0.0000 C   0  0  0  0  0  0  0  0  0  0  0  0
   10.0026   -7.2961    0.0000 O   0  0  0  0  0  0  0  0  0  0  0  0
   10.7171   -6.8836    0.0000 C   0  0  0  0  0  0  0  0  0  0  0  0
   11.4315   -7.2961    0.0000 C   0  0  0  0  0  0  0  0  0  0  0  0
   12.1460   -6.8836    0.0000 C   0  0  0  0  0  0  0  0  0  0  0  0
   12.8605   -7.2961    0.0000 O   0  0  0  0  0  0  0  0  0  0  0  0
   12.1460   -6.0586    0.0000 C   0  0  0  0  0  0  0  0  0  0  0  0
   12.8605   -5.6461    0.0000 C   0  0  0  0  0  0  0  0  0  0  0  0
   13.5749   -6.0586    0.0000 N   0  0  0  0  0  0  0  0  0  0  0  0
   14.2894   -5.6461    0.0000 C   0  0  0  0  0  0  0  0  0  0  0  0
   15.0039   -6.0586    0.0000 C   0  0  0  0  0  0  0  0  0  0  0  0
   15.0039   -6.8836    0.0000 C   0  0  0  0  0  0  0  0  0  0  0  0
   15.7184   -7.2961    0.0000 C   0  0  0  0  0  0  0  0  0  0  0  0
   16.4328   -6.8836    0.0000 C   0  0  0  0  0  0  0  0  0  0  0  0
   16.4328   -6.0586    0.0000 C   0  0  0  0  0  0  0  0  0  0  0  0
   15.7184   -5.6461    0.0000 C   0  0  0  0  0  0  0  0  0  0  0  0
   14.2894   -4.8211    0.0000 N   0  0  0  0  0  0  0  0  0  0  0  0
   13.5749   -4.4086    0.0000 C   0  0  0  0  0  0  0  0  0  0  0  0
   13.5749   -3.5836    0.0000 C   0  0  0  0  0  0  0  0  0  0  0  0
   14.2894   -3.1711    0.0000 C   0  0  0  0  0  0  0  0  0  0  0  0
   14.2894   -2.3461    0.0000 C   0  0  0  0  0  0  0  0  0  0  0  0
   13.5749   -1.9336    0.0000 C   0  0  0  0  0  0  0  0  0  0  0  0
   12.8605   -2.3461    0.0000 C   0  0  0  0  0  0  0  0  0  0  0  0
   12.8605   -3.1711    0.0000 C   0  0  0  0  0  0  0  0  0  0  0  0
   12.8605   -4.8211    0.0000 N   0  0  0  0  0  0  0  0  0  0  0  0
   11.4315   -5.6461    0.0000 C   0  0  0  0  0  0  0  0  0  0  0  0
   10.7171   -6.0586    0.0000 C   0  0  0  0  0  0  0  0  0  0  0  0
  1  2  1  0  0  0  0
  2  3  1  0  0  0  0
  3  4  1  0  0  0  0
  4  5  1  0  0  0  0
  5  6  1  0  0  0  0
  6  7  1  0  0  0  0
  7  8  1  0  0  0  0
  9  8  2  0  0  0  0
 10  9  1  0  0  0  0
 10 11  1  0  0  0  0
 12 10  2  0  0  0  0
 12 13  1  0  0  0  0
 14 13  1  0  0  0  0
 15 14  2  0  0  0  0
 15 16  1  0  0  0  0
 17 16  1  0  0  0  0
 18 17  2  0  0  0  0
 19 18  1  0  0  0  0
 20 19  2  0  0  0  0
 21 20  1  0  0  0  0
 16 21  2  0  0  0  0
 22 15  1  0  0  0  0
 23 22  2  0  0  0  0
 23 24  1  0  0  0  0
 25 24  1  0  0  0  0
 26 25  2  0  0  0  0
 27 26  1  0  0  0  0
 28 27  2  0  0  0  0
 29 28  1  0  0  0  0
 24 29  2  0  0  0  0
 30 23  1  0  0  0  0
 13 30  2  0  0  0  0
 31 12  1  0  0  0  0
 32 31  2  0  0  0  0
  8 32  1  0  0  0  0
M  END
> <RowID>
1741

> <Original_SMILES>
CCCCCCOC1=CC(O)=C(C=C1)C1N=C(N=C(N=1)C1C=CC=CC=1)C1C=CC=CC=1

> <Canonical_QSARr>
CCCCCCOC1=CC(O)=C(C=C1)C1N=C(N=C(N=1)C1C=CC=CC=1)C1C=CC=CC=1

> <InChI_Code_QSARr>
InChI=1S/C27H27N3O2/c1-2-3-4-11-18-32-22-16-17-23(24(31)19-22)27-29-25(20-12-7-5-8-13-20)28-26(30-27)21-14-9-6-10-15-21/h5-10,12-17,19,31H,2-4,11,18H2,1H3

> <InChI Key_QSARr>
LEVFXWNQQSSNAC-UHFFFAOYSA-N

> <Salt_Solvent>


> <Salt_Solvent_ID>
0

> <Number of connected components>
1

$$$$
Molecule_1742
  Mrv2316 01072400032D          

 22 25  0  0  0  0            999 V2000
    3.9503   -1.7461    0.0000 C   0  0  0  0  0  0  0  0  0  0  0  0
    3.6700   -0.9702    0.0000 C   0  0  0  0  0  0  0  0  0  0  0  0
    3.1382   -1.6009    0.0000 C   0  0  0  0  0  0  0  0  0  0  0  0
    2.3261   -1.4557    0.0000 C   0  0  0  0  0  0  0  0  0  0  0  0
    2.0458   -0.6798    0.0000 C   0  0  0  0  0  0  0  0  0  0  0  0
    1.2336   -0.5346    0.0000 O   0  0  0  0  0  0  0  0  0  0  0  0
    2.5776   -0.0491    0.0000 C   0  0  0  0  0  0  0  0  0  0  0  0
    3.3897   -0.1943    0.0000 C   0  0  0  0  0  0  0  0  0  0  0  0
    3.9215    0.4364    0.0000 C   0  0  0  0  0  0  0  0  0  0  0  0
    4.7336    0.2912    0.0000 C   0  0  0  0  0  0  0  0  0  0  0  0
    5.0139   -0.4847    0.0000 C   0  0  0  0  0  0  0  0  0  0  0  0
    5.8261   -0.6299    0.0000 C   0  0  0  0  0  0  0  0  0  0  0  0
    6.4774   -0.1236    0.0000 C   0  0  0  0  0  0  0  0  0  0  0  0
    6.4506    0.7010    0.0000 O   0  0  0  0  0  0  0  0  0  0  0  0
    7.1602   -0.5866    0.0000 C   0  0  0  0  0  0  0  0  0  0  0  0
    6.9309   -1.3791    0.0000 C   0  0  0  0  0  0  0  0  0  0  0  0
    7.4373   -2.0304    0.0000 O   0  0  0  0  0  0  0  0  0  0  0  0
    6.1064   -1.4059    0.0000 C   0  0  0  0  0  0  0  0  0  0  0  0
    6.4662   -2.1482    0.0000 C   0  0  0  0  0  0  0  0  0  0  0  0
    5.5745   -2.0366    0.0000 C   0  0  0  0  0  0  0  0  0  0  0  0
    4.7624   -1.8914    0.0000 C   0  0  0  0  0  0  0  0  0  0  0  0
    4.4821   -1.1154    0.0000 C   0  0  0  0  0  0  0  0  0  0  0  0
  1  2  1  0  0  0  0
  3  2  1  0  0  0  0
  4  3  1  0  0  0  0
  5  4  1  0  0  0  0
  5  6  2  0  0  0  0
  7  5  1  0  0  0  0
  8  7  2  0  0  0  0
  8  2  1  0  0  0  0
  9  8  1  0  0  0  0
 10  9  1  0  0  0  0
 11 10  1  0  0  0  0
 11 12  1  0  0  0  0
 13 12  1  0  0  0  0
 13 14  1  0  0  0  0
 15 13  1  0  0  0  0
 16 15  1  0  0  0  0
 16 17  2  0  0  0  0
 18 16  1  0  0  0  0
 12 18  1  0  0  0  0
 18 19  1  0  0  0  0
 18 20  1  0  0  0  0
 20 21  1  0  0  0  0
 21 22  1  0  0  0  0
  2 22  1  0  0  0  0
 22 11  1  0  0  0  0
M  END
> <RowID>
1742

> <Original_SMILES>
CC12CCC(=O)C=C1CCC1C3C(O)CC(=O)C3(C)CCC21

> <Canonical_QSARr>
CC12CCC(=O)C=C1CCC1C3C(O)CC(=O)C3(C)CCC21

> <InChI_Code_QSARr>
InChI=1S/C19H26O3/c1-18-7-5-12(20)9-11(18)3-4-13-14(18)6-8-19(2)16(22)10-15(21)17(13)19/h9,13-15,17,21H,3-8,10H2,1-2H3

> <InChI Key_QSARr>
MYKMKUGZFQKMOZ-UHFFFAOYSA-N

> <Salt_Solvent>


> <Salt_Solvent_ID>
0

> <Number of connected components>
1

$$$$
Molecule_1743
  Mrv2316 01072400032D          

 10  9  0  0  0  0            999 V2000
    2.1434    4.3164    0.0000 N   0  0  0  0  0  0  0  0  0  0  0  0
    1.4289    3.9039    0.0000 C   0  0  0  0  0  0  0  0  0  0  0  0
    0.7145    3.4914    0.0000 C   0  0  0  0  0  0  0  0  0  0  0  0
    0.7145    2.6664    0.0000 N   0  0  0  0  0  0  0  0  0  0  0  0
   -0.0000    2.2539    0.0000 C   0  0  0  0  0  0  0  0  0  0  0  0
   -0.0000    1.4289    0.0000 C   0  0  0  0  0  0  0  0  0  0  0  0
   -0.0000    0.6039    0.0000 N   0  0  0  0  0  0  0  0  0  0  0  0
    1.4289    2.2539    0.0000 C   0  0  0  0  0  0  0  0  0  0  0  0
    1.4289    1.4289    0.0000 C   0  0  0  0  0  0  0  0  0  0  0  0
    1.4289    0.6039    0.0000 N   0  0  0  0  0  0  0  0  0  0  0  0
  1  2  3  0  0  0  0
  2  3  1  0  0  0  0
  3  4  1  0  0  0  0
  4  5  1  0  0  0  0
  5  6  1  0  0  0  0
  6  7  3  0  0  0  0
  4  8  1  0  0  0  0
  8  9  1  0  0  0  0
  9 10  3  0  0  0  0
M  END
> <RowID>
1743

> <Original_SMILES>
N#CCN(CC#N)CC#N

> <Canonical_QSARr>
N#CCN(CC#N)CC#N

> <InChI_Code_QSARr>
InChI=1S/C6H6N4/c7-1-4-10(5-2-8)6-3-9/h4-6H2

> <InChI Key_QSARr>
LJAIDEYQVIJERM-UHFFFAOYSA-N

> <Salt_Solvent>


> <Salt_Solvent_ID>
0

> <Number of connected components>
1

$$$$
Molecule_1744
  Mrv2316 01072400032D          

 19 20  0  0  0  0            999 V2000
    1.4289   -4.9500    0.0000 C   0  0  0  0  0  0  0  0  0  0  0  0
    2.1434   -5.3625    0.0000 C   0  0  0  0  0  0  0  0  0  0  0  0
    2.8579   -4.9500    0.0000 C   0  0  0  0  0  0  0  0  0  0  0  0
    3.5724   -5.3625    0.0000 C   0  0  0  0  0  0  0  0  0  0  0  0
    4.2868   -4.9500    0.0000 C   0  0  0  0  0  0  0  0  0  0  0  0
    5.0013   -5.3625    0.0000 C   0  0  0  0  0  0  0  0  0  0  0  0
    5.7158   -4.9500    0.0000 N   0  0  0  0  0  0  0  0  0  0  0  0
    6.4302   -5.3625    0.0000 C   0  0  0  0  0  0  0  0  0  0  0  0
    7.1447   -4.9500    0.0000 C   0  0  0  0  0  0  0  0  0  0  0  0
    7.8592   -5.3625    0.0000 C   0  0  0  0  0  0  0  0  0  0  0  0
    8.5737   -4.9500    0.0000 C   0  0  0  0  0  0  0  0  0  0  0  0
    9.2881   -5.3625    0.0000 C   0  0  0  0  0  0  0  0  0  0  0  0
    9.2881   -6.1875    0.0000 C   0  0  0  0  0  0  0  0  0  0  0  0
    8.5737   -6.6000    0.0000 C   0  0  0  0  0  0  0  0  0  0  0  0
    7.8592   -6.1875    0.0000 C   0  0  0  0  0  0  0  0  0  0  0  0
    7.1447   -6.6000    0.0000 C   0  0  0  0  0  0  0  0  0  0  0  0
    6.4302   -6.1875    0.0000 C   0  0  0  0  0  0  0  0  0  0  0  0
    4.2868   -4.1250    0.0000 C   0  0  0  0  0  0  0  0  0  0  0  0
    5.0013   -3.7125    0.0000 C   0  0  0  0  0  0  0  0  0  0  0  0
  1  2  1  0  0  0  0
  2  3  1  0  0  0  0
  3  4  1  0  0  0  0
  4  5  1  0  0  0  0
  5  6  1  0  0  0  0
  6  7  1  0  0  0  0
  7  8  1  0  0  0  0
  9  8  2  0  0  0  0
 10  9  1  0  0  0  0
 10 11  2  0  0  0  0
 11 12  1  0  0  0  0
 12 13  2  0  0  0  0
 13 14  1  0  0  0  0
 14 15  2  0  0  0  0
 15 10  1  0  0  0  0
 16 15  1  0  0  0  0
 17 16  2  0  0  0  0
  8 17  1  0  0  0  0
  5 18  1  0  0  0  0
 18 19  1  0  0  0  0
M  END
> <RowID>
1744

> <Original_SMILES>
CCCCC(CNC1=CC2=CC=CC=C2C=C1)CC

> <Canonical_QSARr>
CCCCC(CNC1=CC2=CC=CC=C2C=C1)CC

> <InChI_Code_QSARr>
InChI=1S/C18H25N/c1-3-5-8-15(4-2)14-19-18-12-11-16-9-6-7-10-17(16)13-18/h6-7,9-13,15,19H,3-5,8,14H2,1-2H3

> <InChI Key_QSARr>
PEIBVKBWHHZYQC-UHFFFAOYSA-N

> <Salt_Solvent>


> <Salt_Solvent_ID>
0

> <Number of connected components>
1

$$$$
Molecule_1745
  Mrv2316 01072400032D          

 18 19  0  0  0  0            999 V2000
    1.5418   -8.6998    0.0000 C   0  0  0  0  0  0  0  0  0  0  0  0
    0.8274   -8.2873    0.0000 C   0  0  0  0  0  0  0  0  0  0  0  0
    0.8274   -7.4623    0.0000 N   0  0  0  0  0  0  0  0  0  0  0  0
    0.1129   -7.0498    0.0000 C   0  0  0  0  0  0  0  0  0  0  0  0
    0.1129   -6.2248    0.0000 C   0  0  0  0  0  0  0  0  0  0  0  0
   -0.6016   -5.8123    0.0000 C   0  0  0  0  0  0  0  0  0  0  0  0
   -0.6878   -4.9918    0.0000 N   0  0  0  0  0  0  0  0  0  0  0  0
   -1.4948   -4.8203    0.0000 C   0  0  0  0  0  0  0  0  0  0  0  0
   -1.8303   -4.0666    0.0000 C   0  0  0  0  0  0  0  0  0  0  0  0
   -1.3454   -3.3992    0.0000 C   0  0  0  0  0  0  0  0  0  0  0  0
   -1.6810   -2.6455    0.0000 C   0  0  0  0  0  0  0  0  0  0  0  0
   -2.5014   -2.5592    0.0000 C   0  0  0  0  0  0  0  0  0  0  0  0
   -2.9864   -3.2267    0.0000 C   0  0  0  0  0  0  0  0  0  0  0  0
   -2.6508   -3.9804    0.0000 C   0  0  0  0  0  0  0  0  0  0  0  0
   -1.9073   -5.5347    0.0000 N   0  0  0  0  0  0  0  0  0  0  0  0
   -1.3552   -6.1478    0.0000 O   0  0  0  0  0  0  0  0  0  0  0  0
    1.5418   -7.0498    0.0000 C   0  0  0  0  0  0  0  0  0  0  0  0
    2.2563   -7.4623    0.0000 C   0  0  0  0  0  0  0  0  0  0  0  0
  1  2  1  0  0  0  0
  2  3  1  0  0  0  0
  3  4  1  0  0  0  0
  4  5  1  0  0  0  0
  5  6  1  0  0  0  0
  7  6  2  0  0  0  0
  8  7  1  0  0  0  0
  8  9  1  0  0  0  0
 10  9  1  0  0  0  0
 11 10  2  0  0  0  0
 12 11  1  0  0  0  0
 13 12  2  0  0  0  0
 14 13  1  0  0  0  0
  9 14  2  0  0  0  0
 15  8  2  0  0  0  0
 16 15  1  0  0  0  0
  6 16  1  0  0  0  0
  3 17  1  0  0  0  0
 17 18  1  0  0  0  0
M  END
> <RowID>
1745

> <Original_SMILES>
CCN(CCC1=NC(=NO1)C1C=CC=CC=1)CC

> <Canonical_QSARr>
CCN(CCC1=NC(=NO1)C1C=CC=CC=1)CC

> <InChI_Code_QSARr>
InChI=1S/C14H19N3O/c1-3-17(4-2)11-10-13-15-14(16-18-13)12-8-6-5-7-9-12/h5-9H,3-4,10-11H2,1-2H3

> <InChI Key_QSARr>
IDCHQQSVJAAUQQ-UHFFFAOYSA-N

> <Salt_Solvent>


> <Salt_Solvent_ID>
0

> <Number of connected components>
1

$$$$
Molecule_1746
  Mrv2316 01072400032D          

 23 25  0  0  0  0            999 V2000
    0.7854   -4.2319    0.0000 C   0  0  0  0  0  0  0  0  0  0  0  0
    1.2704   -3.5645    0.0000 C   0  0  0  0  0  0  0  0  0  0  0  0
    2.0908   -3.6507    0.0000 C   0  0  0  0  0  0  0  0  0  0  0  0
    2.0908   -2.8257    0.0000 C   0  0  0  0  0  0  0  0  0  0  0  0
    1.3764   -2.4132    0.0000 C   0  0  0  0  0  0  0  0  0  0  0  0
    1.3764   -1.5882    0.0000 C   0  0  0  0  0  0  0  0  0  0  0  0
    0.6619   -1.1757    0.0000 C   0  0  0  0  0  0  0  0  0  0  0  0
    0.6619   -0.3507    0.0000 C   0  0  0  0  0  0  0  0  0  0  0  0
    1.3764    0.0618    0.0000 C   0  0  0  0  0  0  0  0  0  0  0  0
    2.0908   -0.3507    0.0000 C   0  0  0  0  0  0  0  0  0  0  0  0
    2.8053    0.0618    0.0000 C   0  0  0  0  0  0  0  0  0  0  0  0
    3.5198   -0.3507    0.0000 C   0  0  0  0  0  0  0  0  0  0  0  0
    3.5198   -1.1757    0.0000 C   0  0  0  0  0  0  0  0  0  0  0  0
    2.8053   -1.5882    0.0000 C   0  0  0  0  0  0  0  0  0  0  0  0
    2.0908   -1.1757    0.0000 C   0  0  0  0  0  0  0  0  0  0  0  0
    4.2343    0.0618    0.0000 O   0  0  0  0  0  0  0  0  0  0  0  0
    4.2343    0.8868    0.0000 C   0  0  0  0  0  0  0  0  0  0  0  0
    1.9193   -4.4577    0.0000 C   0  0  0  0  0  0  0  0  0  0  0  0
    1.1656   -4.7932    0.0000 O   0  0  0  0  0  0  0  0  0  0  0  0
    2.6338   -4.8702    0.0000 C   0  0  0  0  0  0  0  0  0  0  0  0
    3.2469   -4.3182    0.0000 C   0  0  0  0  0  0  0  0  0  0  0  0
    2.9113   -3.5645    0.0000 C   0  0  0  0  0  0  0  0  0  0  0  0
    3.3238   -2.8500    0.0000 O   0  0  0  0  0  0  0  0  0  0  0  0
  1  2  1  0  0  0  0
  2  3  1  0  0  0  0
  3  4  1  0  0  0  0
  5  4  1  4  0  0  0
  5  6  2  0  0  0  0
  7  6  1  0  0  0  0
  8  7  1  0  0  0  0
  9  8  1  0  0  0  0
 10  9  1  0  0  0  0
 10 11  1  0  0  0  0
 11 12  2  0  0  0  0
 12 13  1  0  0  0  0
 13 14  2  0  0  0  0
 14 15  1  0  0  0  0
  6 15  1  0  0  0  0
 15 10  2  0  0  0  0
 12 16  1  0  0  0  0
 16 17  1  0  0  0  0
 18  3  1  0  0  0  0
 18 19  1  0  0  0  0
 20 18  1  0  0  0  0
 21 20  1  0  0  0  0
 22 21  1  0  0  0  0
  3 22  1  0  0  0  0
 22 23  2  0  0  0  0
M  END
> <RowID>
1746

> <Original_SMILES>
CCC1(CC=C2CCCC3C=C(C=CC=32)OC)C(O)CCC1=O

> <Canonical_QSARr>
CCC1(CC=C2CCCC3C=C(C=CC=32)OC)C(O)CCC1=O

> <InChI_Code_QSARr>
InChI=1S/C20H26O3/c1-3-20(18(21)9-10-19(20)22)12-11-14-5-4-6-15-13-16(23-2)7-8-17(14)15/h7-8,11,13,18,21H,3-6,9-10,12H2,1-2H3

> <InChI Key_QSARr>
ZXYHLOFRRMDJAQ-UHFFFAOYSA-N

> <Salt_Solvent>


> <Salt_Solvent_ID>
0

> <Number of connected components>
1

$$$$
Molecule_1747
  Mrv2316 01072400032D          

 64 69  0  0  0  0            999 V2000
    9.7905   -2.3525    0.0000 O   0  0  0  0  0  0  0  0  0  0  0  0
    9.0760   -2.7650    0.0000 S   0  0  0  0  0  0  0  0  0  0  0  0
    9.4885   -3.4795    0.0000 O   0  0  0  0  0  0  0  0  0  0  0  0
    8.6635   -2.0506    0.0000 O   0  0  0  0  0  0  0  0  0  0  0  0
    8.3615   -3.1775    0.0000 C   0  0  0  0  0  0  0  0  0  0  0  0
    7.6471   -2.7650    0.0000 C   0  0  0  0  0  0  0  0  0  0  0  0
    7.6471   -1.9400    0.0000 C   0  0  0  0  0  0  0  0  0  0  0  0
    8.3615   -1.5275    0.0000 C   0  0  0  0  0  0  0  0  0  0  0  0
    8.3615   -0.7025    0.0000 C   0  0  0  0  0  0  0  0  0  0  0  0
    9.0760   -0.2900    0.0000 C   0  0  0  0  0  0  0  0  0  0  0  0
    9.7905   -0.7025    0.0000 S   0  0  0  0  0  0  0  0  0  0  0  0
   10.5050   -1.1150    0.0000 O   0  0  0  0  0  0  0  0  0  0  0  0
   10.2030    0.0119    0.0000 O   0  0  0  0  0  0  0  0  0  0  0  0
    9.3780   -1.4170    0.0000 O   0  0  0  0  0  0  0  0  0  0  0  0
    9.0760    0.5350    0.0000 C   0  0  0  0  0  0  0  0  0  0  0  0
    8.3615    0.9475    0.0000 C   0  0  0  0  0  0  0  0  0  0  0  0
    8.3615    1.7725    0.0000 N   0  0  0  0  0  0  0  0  0  0  0  0
    7.6471    2.1850    0.0000 C   0  0  0  0  0  0  0  0  0  0  0  0
    7.6471    3.0100    0.0000 N   0  0  0  0  0  0  0  0  0  0  0  0
    6.9326    3.4225    0.0000 C   0  0  0  0  0  0  0  0  0  0  0  0
    6.9326    4.2475    0.0000 N   0  0  0  0  0  0  0  0  0  0  0  0
    7.6471    4.6600    0.0000 C   0  0  0  0  0  0  0  0  0  0  0  0
    8.3615    4.2475    0.0000 C   0  0  0  0  0  0  0  0  0  0  0  0
    9.0760    4.6600    0.0000 O   0  0  0  0  0  0  0  0  0  0  0  0
    6.2181    4.6600    0.0000 C   0  0  0  0  0  0  0  0  0  0  0  0
    5.5037    4.2475    0.0000 C   0  0  0  0  0  0  0  0  0  0  0  0
    4.7892    4.6600    0.0000 O   0  0  0  0  0  0  0  0  0  0  0  0
    6.2181    3.0100    0.0000 N   0  0  0  0  0  0  0  0  0  0  0  0
    6.2181    2.1850    0.0000 C   0  0  0  0  0  0  0  0  0  0  0  0
    5.5037    1.7725    0.0000 N   0  0  0  0  0  0  0  0  0  0  0  0
    4.7892    2.1850    0.0000 C   0  0  0  0  0  0  0  0  0  0  0  0
    4.7892    3.0100    0.0000 C   0  0  0  0  0  0  0  0  0  0  0  0
    4.0747    3.4225    0.0000 C   0  0  0  0  0  0  0  0  0  0  0  0
    3.3602    3.0100    0.0000 C   0  0  0  0  0  0  0  0  0  0  0  0
    3.3602    2.1850    0.0000 C   0  0  0  0  0  0  0  0  0  0  0  0
    4.0747    1.7725    0.0000 C   0  0  0  0  0  0  0  0  0  0  0  0
    6.9326    1.7725    0.0000 N   0  0  0  0  0  0  0  0  0  0  0  0
    7.6471    0.5350    0.0000 C   0  0  0  0  0  0  0  0  0  0  0  0
    7.6471   -0.2900    0.0000 C   0  0  0  0  0  0  0  0  0  0  0  0
    6.9326   -3.1775    0.0000 C   0  0  0  0  0  0  0  0  0  0  0  0
    6.9326   -4.0025    0.0000 C   0  0  0  0  0  0  0  0  0  0  0  0
    7.6471   -4.4150    0.0000 C   0  0  0  0  0  0  0  0  0  0  0  0
    7.6471   -5.2400    0.0000 N   0  0  0  0  0  0  0  0  0  0  0  0
    6.9326   -5.6525    0.0000 C   0  0  0  0  0  0  0  0  0  0  0  0
    6.2181   -5.2400    0.0000 N   0  0  0  0  0  0  0  0  0  0  0  0
    5.5037   -5.6525    0.0000 C   0  0  0  0  0  0  0  0  0  0  0  0
    4.7892   -5.2400    0.0000 N   0  0  0  0  0  0  0  0  0  0  0  0
    4.7892   -4.4150    0.0000 C   0  0  0  0  0  0  0  0  0  0  0  0
    5.5037   -4.0025    0.0000 C   0  0  0  0  0  0  0  0  0  0  0  0
    5.5037   -3.1775    0.0000 O   0  0  0  0  0  0  0  0  0  0  0  0
    4.0747   -5.6525    0.0000 C   0  0  0  0  0  0  0  0  0  0  0  0
    4.0747   -6.4775    0.0000 C   0  0  0  0  0  0  0  0  0  0  0  0
    3.3602   -6.8900    0.0000 O   0  0  0  0  0  0  0  0  0  0  0  0
    5.5037   -6.4775    0.0000 N   0  0  0  0  0  0  0  0  0  0  0  0
    6.2181   -6.8900    0.0000 C   0  0  0  0  0  0  0  0  0  0  0  0
    6.2181   -7.7150    0.0000 N   0  0  0  0  0  0  0  0  0  0  0  0
    6.9326   -8.1275    0.0000 C   0  0  0  0  0  0  0  0  0  0  0  0
    6.9326   -8.9525    0.0000 C   0  0  0  0  0  0  0  0  0  0  0  0
    7.6471   -9.3650    0.0000 C   0  0  0  0  0  0  0  0  0  0  0  0
    8.3615   -8.9525    0.0000 C   0  0  0  0  0  0  0  0  0  0  0  0
    8.3615   -8.1275    0.0000 C   0  0  0  0  0  0  0  0  0  0  0  0
    7.6471   -7.7150    0.0000 C   0  0  0  0  0  0  0  0  0  0  0  0
    6.9326   -6.4775    0.0000 N   0  0  0  0  0  0  0  0  0  0  0  0
    8.3615   -4.0025    0.0000 C   0  0  0  0  0  0  0  0  0  0  0  0
  1  2  1  0  0  0  0
  2  3  2  0  0  0  0
  2  4  2  0  0  0  0
  2  5  1  0  0  0  0
  6  5  2  0  0  0  0
  7  6  1  4  0  0  0
  7  8  2  0  0  0  0
  8  9  1  0  0  0  0
 10  9  2  0  0  0  0
 10 11  1  0  0  0  0
 11 12  1  0  0  0  0
 11 13  2  0  0  0  0
 11 14  2  0  0  0  0
 15 10  1  0  0  0  0
 16 15  2  0  0  0  0
 16 17  1  0  0  0  0
 17 18  1  0  0  0  0
 19 18  2  0  0  0  0
 20 19  1  0  0  0  0
 20 21  1  0  0  0  0
 21 22  1  0  0  0  0
 22 23  1  0  0  0  0
 23 24  1  0  0  0  0
 21 25  1  0  0  0  0
 25 26  1  0  0  0  0
 26 27  1  0  0  0  0
 28 20  2  0  0  0  0
 29 28  1  0  0  0  0
 29 30  1  0  0  0  0
 30 31  1  0  0  0  0
 32 31  2  0  0  0  0
 33 32  1  0  0  0  0
 34 33  2  0  0  0  0
 35 34  1  0  0  0  0
 36 35  2  0  0  0  0
 31 36  1  0  0  0  0
 37 29  2  0  0  0  0
 18 37  1  0  0  0  0
 38 16  1  0  0  0  0
 39 38  2  0  0  0  0
  9 39  1  0  0  0  0
 40  6  1  0  0  0  0
 41 40  2  0  0  0  0
 42 41  1  0  0  0  0
 42 43  1  0  0  0  0
 43 44  1  0  0  0  0
 45 44  2  0  0  0  0
 46 45  1  0  0  0  0
 46 47  1  0  0  0  0
 47 48  1  0  0  0  0
 48 49  1  0  0  0  0
 49 50  1  0  0  0  0
 47 51  1  0  0  0  0
 51 52  1  0  0  0  0
 52 53  1  0  0  0  0
 54 46  2  0  0  0  0
 55 54  1  0  0  0  0
 55 56  1  0  0  0  0
 56 57  1  0  0  0  0
 58 57  2  0  0  0  0
 59 58  1  0  0  0  0
 60 59  2  0  0  0  0
 61 60  1  0  0  0  0
 62 61  2  0  0  0  0
 57 62  1  0  0  0  0
 63 55  2  0  0  0  0
 44 63  1  0  0  0  0
 64 42  2  0  0  0  0
  5 64  1  0  0  0  0
M  END
> <RowID>
1747

> <Original_SMILES>
[Na+].[Na+].[O-]S(=O)(=O)C1=CC(=CC=C1C=CC1=CC=C(C=C1S([O-])(=O)=O)NC1=NC(NC2C=CC=CC=2)=NC(=N1)N(CCO)CCO)NC1=NC(NC2C=CC=CC=2)=NC(=N1)N(CCO)CCO

> <Canonical_QSARr>
OS(=O)(=O)C1C=C(C=CC=1C=CC1C=CC(=CC=1S(O)(=O)=O)NC1N=C(NC2C=CC=CC=2)N=C(N=1)N(CCO)CCO)NC1N=C(NC2C=CC=CC=2)N=C(N=1)N(CCO)CCO

> <InChI_Code_QSARr>
InChI=1S/C40H44N12O10S2/c53-21-17-51(18-22-54)39-47-35(41-29-7-3-1-4-8-29)45-37(49-39)43-31-15-13-27(33(25-31)63(57,58)59)11-12-28-14-16-32(26-34(28)64(60,61)62)44-38-46-36(42-30-9-5-2-6-10-30)48-40(50-38)52(19-23-55)20-24-56/h1-16,25-26,53-56H,17-24H2,(H,57,58,59)(H,60,61,62)(H2,41,43,45,47,49)(H2,42,44,46,48,50)

> <InChI Key_QSARr>
CNGYZEMWVAWWOB-UHFFFAOYSA-N

> <Salt_Solvent>
[Na+]

> <Salt_Solvent_ID>
110

> <Number of connected components>
3

$$$$
Molecule_1749
  Mrv2316 01072400032D          

 20 19  0  0  0  0            999 V2000
    1.5146   -0.3182    0.0000 C   0  0  0  0  0  0  0  0  0  0  0  0
    2.3155   -0.1200    0.0000 C   0  0  0  0  0  0  0  0  0  0  0  0
    2.5443    0.6726    0.0000 C   0  0  0  0  0  0  0  0  0  0  0  0
    2.8875   -0.7145    0.0000 C   0  0  0  0  0  0  0  0  0  0  0  0
    2.6587   -1.5071    0.0000 O   0  0  0  0  0  0  0  0  0  0  0  0
    3.6884   -0.5163    0.0000 O   0  0  0  0  0  0  0  0  0  0  0  0
    4.2604   -1.1108    0.0000 C   0  0  0  0  0  0  0  0  0  0  0  0
    4.0316   -1.9034    0.0000 C   0  0  0  0  0  0  0  0  0  0  0  0
    4.6036   -2.4979    0.0000 C   0  0  0  0  0  0  0  0  0  0  0  0
    3.2307   -2.1016    0.0000 C   0  0  0  0  0  0  0  0  0  0  0  0
    5.0612   -0.9126    0.0000 C   0  0  0  0  0  0  0  0  0  0  0  0
    5.2594   -1.7135    0.0000 C   0  0  0  0  0  0  0  0  0  0  0  0
    4.8631   -0.1118    0.0000 C   0  0  0  0  0  0  0  0  0  0  0  0
    5.8621   -0.7145    0.0000 C   0  0  0  0  0  0  0  0  0  0  0  0
    6.4341   -1.3090    0.0000 O   0  0  0  0  0  0  0  0  0  0  0  0
    7.2350   -1.1108    0.0000 C   0  0  0  0  0  0  0  0  0  0  0  0
    7.4638   -0.3182    0.0000 O   0  0  0  0  0  0  0  0  0  0  0  0
    7.8070   -1.7053    0.0000 C   0  0  0  0  0  0  0  0  0  0  0  0
    8.6079   -1.5071    0.0000 C   0  0  0  0  0  0  0  0  0  0  0  0
    7.5782   -2.4979    0.0000 C   0  0  0  0  0  0  0  0  0  0  0  0
  1  2  1  0  0  0  0
  2  3  1  0  0  0  0
  2  4  1  0  0  0  0
  4  5  2  0  0  0  0
  4  6  1  0  0  0  0
  6  7  1  0  0  0  0
  7  8  1  0  0  0  0
  8  9  1  0  0  0  0
  8 10  1  0  0  0  0
  7 11  1  0  0  0  0
 11 12  1  0  0  0  0
 11 13  1  0  0  0  0
 11 14  1  0  0  0  0
 14 15  1  0  0  0  0
 15 16  1  0  0  0  0
 16 17  2  0  0  0  0
 16 18  1  0  0  0  0
 18 19  1  0  0  0  0
 18 20  1  0  0  0  0
M  END
> <RowID>
1749

> <Original_SMILES>
CC(C)C(=O)OC(C(C)C)C(C)(C)COC(=O)C(C)C

> <Canonical_QSARr>
CC(C)C(=O)OC(C(C)C)C(C)(C)COC(=O)C(C)C

> <InChI_Code_QSARr>
InChI=1S/C16H30O4/c1-10(2)13(20-15(18)12(5)6)16(7,8)9-19-14(17)11(3)4/h10-13H,9H2,1-8H3

> <InChI Key_QSARr>
OMVSWZDEEGIJJI-UHFFFAOYSA-N

> <Salt_Solvent>


> <Salt_Solvent_ID>
0

> <Number of connected components>
1

$$$$
Molecule_1751
  Mrv2316 01072400032D          

 28 30  0  0  0  0            999 V2000
   -2.3220   -1.7531    0.0000 O   0  0  0  0  0  0  0  0  0  0  0  0
   -1.6076   -1.3406    0.0000 S   0  0  0  0  0  0  0  0  0  0  0  0
   -1.1951   -2.0551    0.0000 O   0  0  0  0  0  0  0  0  0  0  0  0
   -2.0201   -0.6262    0.0000 O   0  0  0  0  0  0  0  0  0  0  0  0
   -0.8931   -0.9281    0.0000 C   0  0  0  0  0  0  0  0  0  0  0  0
   -0.1786   -1.3406    0.0000 C   0  0  0  0  0  0  0  0  0  0  0  0
    0.5359   -0.9281    0.0000 C   0  0  0  0  0  0  0  0  0  0  0  0
    0.5359   -0.1031    0.0000 C   0  0  0  0  0  0  0  0  0  0  0  0
    1.2503    0.3094    0.0000 C   0  0  0  0  0  0  0  0  0  0  0  0
    1.9648   -0.1031    0.0000 C   0  0  0  0  0  0  0  0  0  0  0  0
    1.9648   -0.9281    0.0000 C   0  0  0  0  0  0  0  0  0  0  0  0
    1.2503   -1.3406    0.0000 C   0  0  0  0  0  0  0  0  0  0  0  0
    2.6793   -1.3406    0.0000 S   0  0  0  0  0  0  0  0  0  0  0  0
    3.3937   -1.7531    0.0000 O   0  0  0  0  0  0  0  0  0  0  0  0
    2.2668   -2.0551    0.0000 O   0  0  0  0  0  0  0  0  0  0  0  0
    3.0918   -0.6262    0.0000 O   0  0  0  0  0  0  0  0  0  0  0  0
    2.6793    0.3094    0.0000 N   0  0  0  0  0  0  0  0  0  0  0  0
    3.3937   -0.1031    0.0000 N   0  0  0  0  0  0  0  0  0  0  0  0
    4.1082    0.3094    0.0000 C   0  0  0  0  0  0  0  0  0  0  0  0
    4.8227   -0.1031    0.0000 C   0  0  0  0  0  0  0  0  0  0  0  0
    5.5372    0.3094    0.0000 C   0  0  0  0  0  0  0  0  0  0  0  0
    5.5372    1.1344    0.0000 C   0  0  0  0  0  0  0  0  0  0  0  0
    4.8227    1.5469    0.0000 C   0  0  0  0  0  0  0  0  0  0  0  0
    4.1082    1.1344    0.0000 C   0  0  0  0  0  0  0  0  0  0  0  0
    1.2503    1.1344    0.0000 O   0  0  0  0  0  0  0  0  0  0  0  0
   -0.1786    0.3094    0.0000 C   0  0  0  0  0  0  0  0  0  0  0  0
   -0.1786    1.1344    0.0000 N   0  0  0  0  0  0  0  0  0  0  0  0
   -0.8931   -0.1031    0.0000 C   0  0  0  0  0  0  0  0  0  0  0  0
  1  2  1  0  0  0  0
  2  3  2  0  0  0  0
  2  4  2  0  0  0  0
  2  5  1  0  0  0  0
  6  5  2  0  0  0  0
  7  6  1  0  0  0  0
  7  8  1  0  0  0  0
  8  9  2  0  0  0  0
  9 10  1  0  0  0  0
 10 11  2  0  0  0  0
 11 12  1  0  0  0  0
 12  7  2  0  0  0  0
 11 13  1  0  0  0  0
 13 14  1  0  0  0  0
 13 15  2  0  0  0  0
 13 16  2  0  0  0  0
 17 10  1  4  0  0  0
 17 18  2  0  0  0  0
 18 19  1  0  0  0  0
 20 19  2  0  0  0  0
 21 20  1  0  0  0  0
 22 21  2  0  0  0  0
 23 22  1  0  0  0  0
 24 23  2  0  0  0  0
 19 24  1  0  0  0  0
  9 25  1  0  0  0  0
 26  8  1  0  0  0  0
 26 27  1  0  0  0  0
 28 26  2  0  0  0  0
  5 28  1  0  0  0  0
M  END
> <RowID>
1751

> <Original_SMILES>
[Na+].[Na+].NC1=CC(=CC2C=C(C(N=NC3C=CC=CC=3)=C(O)C=21)S([O-])(=O)=O)S([O-])(=O)=O

> <Canonical_QSARr>
NC1=CC(=CC2=CC(=C(N=NC3C=CC=CC=3)C(O)=C21)S(O)(=O)=O)S(O)(=O)=O

> <InChI_Code_QSARr>
InChI=1S/C16H13N3O7S2/c17-12-8-11(27(21,22)23)6-9-7-13(28(24,25)26)15(16(20)14(9)12)19-18-10-4-2-1-3-5-10/h1-8,20H,17H2,(H,21,22,23)(H,24,25,26)

> <InChI Key_QSARr>
UDCKXEFJOHLCKM-UHFFFAOYSA-N

> <Salt_Solvent>
[Na+]

> <Salt_Solvent_ID>
110

> <Number of connected components>
3

$$$$
Molecule_1752
  Mrv2316 01072400032D          

 13 13  0  0  0  0            999 V2000
    2.5831    0.4760    0.0000 O   0  0  0  0  0  0  0  0  0  0  0  0
    1.8686    0.0635    0.0000 C   0  0  0  0  0  0  0  0  0  0  0  0
    1.8686   -0.7615    0.0000 O   0  0  0  0  0  0  0  0  0  0  0  0
    1.1541    0.4760    0.0000 C   0  0  0  0  0  0  0  0  0  0  0  0
    1.1541    1.3010    0.0000 C   0  0  0  0  0  0  0  0  0  0  0  0
    0.4397    1.7135    0.0000 C   0  0  0  0  0  0  0  0  0  0  0  0
    0.4397    2.5385    0.0000 O   0  0  0  0  0  0  0  0  0  0  0  0
   -0.2748    1.3010    0.0000 C   0  0  0  0  0  0  0  0  0  0  0  0
   -0.2748    0.4760    0.0000 C   0  0  0  0  0  0  0  0  0  0  0  0
   -0.9893    0.0635    0.0000 C   0  0  0  0  0  0  0  0  0  0  0  0
   -0.9893   -0.7615    0.0000 O   0  0  0  0  0  0  0  0  0  0  0  0
   -1.7037    0.4760    0.0000 O   0  0  0  0  0  0  0  0  0  0  0  0
    0.4397    0.0635    0.0000 C   0  0  0  0  0  0  0  0  0  0  0  0
  1  2  1  0  0  0  0
  2  3  2  0  0  0  0
  2  4  1  0  0  0  0
  5  4  1  0  0  0  0
  6  5  2  0  0  0  0
  6  7  1  0  0  0  0
  8  6  1  0  0  0  0
  9  8  2  0  0  0  0
  9 10  1  0  0  0  0
 10 11  1  0  0  0  0
 10 12  2  0  0  0  0
 13  9  1  0  0  0  0
  4 13  2  0  0  0  0
M  END
> <RowID>
1752

> <Original_SMILES>
OC(=O)C1C=C(O)C=C(C=1)C(O)=O

> <Canonical_QSARr>
OC(=O)C1C=C(O)C=C(C=1)C(O)=O

> <InChI_Code_QSARr>
InChI=1S/C8H6O5/c9-6-2-4(7(10)11)1-5(3-6)8(12)13/h1-3,9H,(H,10,11)(H,12,13)

> <InChI Key_QSARr>
QNVNLUSHGRBCLO-UHFFFAOYSA-N

> <Salt_Solvent>


> <Salt_Solvent_ID>
0

> <Number of connected components>
1

$$$$
Molecule_1753
  Mrv2316 01072400032D          

  9  9  0  0  0  0            999 V2000
    1.8259    1.4208    0.0000 C   0  0  0  0  0  0  0  0  0  0  0  0
    1.1114    1.0083    0.0000 C   0  0  0  0  0  0  0  0  0  0  0  0
    0.3969    1.4208    0.0000 C   0  0  0  0  0  0  0  0  0  0  0  0
    0.3969    2.2458    0.0000 N   0  0  0  0  0  0  0  0  0  0  0  0
   -0.3175    1.0083    0.0000 C   0  0  0  0  0  0  0  0  0  0  0  0
   -0.3175    0.1833    0.0000 C   0  0  0  0  0  0  0  0  0  0  0  0
    0.3969   -0.2292    0.0000 C   0  0  0  0  0  0  0  0  0  0  0  0
    1.1114    0.1833    0.0000 C   0  0  0  0  0  0  0  0  0  0  0  0
    1.8259   -0.2292    0.0000 Cl  0  0  0  0  0  0  0  0  0  0  0  0
  1  2  1  0  0  0  0
  3  2  2  0  0  0  0
  3  4  1  0  0  0  0
  5  3  1  0  0  0  0
  6  5  2  0  0  0  0
  7  6  1  0  0  0  0
  8  7  2  0  0  0  0
  2  8  1  0  0  0  0
  8  9  1  0  0  0  0
M  END
> <RowID>
1753

> <Original_SMILES>
CC1=C(N)C=CC=C1Cl

> <Canonical_QSARr>
CC1=C(N)C=CC=C1Cl

> <InChI_Code_QSARr>
InChI=1S/C7H8ClN/c1-5-6(8)3-2-4-7(5)9/h2-4H,9H2,1H3

> <InChI Key_QSARr>
ZUVPLKVDZNDZCM-UHFFFAOYSA-N

> <Salt_Solvent>


> <Salt_Solvent_ID>
0

> <Number of connected components>
1

$$$$
Molecule_1754
  Mrv2316 01072400032D          

 12 12  0  0  0  0            999 V2000
   -0.7145    2.0625    0.0000 C   0  0  0  0  0  0  0  0  0  0  0  0
   -0.0000    2.4750    0.0000 C   0  0  0  0  0  0  0  0  0  0  0  0
    0.7145    2.0625    0.0000 C   0  0  0  0  0  0  0  0  0  0  0  0
    0.7145    1.2375    0.0000 C   0  0  0  0  0  0  0  0  0  0  0  0
   -0.0000    0.8250    0.0000 C   0  0  0  0  0  0  0  0  0  0  0  0
   -0.0000    0.0000    0.0000 C   0  0  0  0  0  0  0  0  0  0  0  0
    0.7145   -0.4125    0.0000 C   0  0  0  0  0  0  0  0  0  0  0  0
    1.4289    0.0000    0.0000 C   0  0  0  0  0  0  0  0  0  0  0  0
    1.4289    0.8250    0.0000 C   0  0  0  0  0  0  0  0  0  0  0  0
    1.4289    2.4750    0.0000 O   0  0  0  0  0  0  0  0  0  0  0  0
   -0.0000    3.3000    0.0000 N   0  0  0  0  0  0  0  0  0  0  0  0
   -0.7145    3.7125    0.0000 C   0  0  0  0  0  0  0  0  0  0  0  0
  1  2  1  0  0  0  0
  2  3  1  0  0  0  0
  3  4  1  0  0  0  0
  5  4  2  0  0  0  0
  6  5  1  0  0  0  0
  7  6  2  0  0  0  0
  8  7  1  0  0  0  0
  9  8  2  0  0  0  0
  4  9  1  0  0  0  0
  3 10  1  0  0  0  0
  2 11  1  0  0  0  0
 11 12  1  0  0  0  0
M  END
> <RowID>
1754

> <Original_SMILES>
CC(NC)C(O)C1C=CC=CC=1.CC(NC)C(O)C1C=CC=CC=1.OS(O)(=O)=O

> <Canonical_QSARr>
CC(NC)C(O)C1C=CC=CC=1

> <InChI_Code_QSARr>
InChI=1S/C10H15NO/c1-8(11-2)10(12)9-6-4-3-5-7-9/h3-8,10-12H,1-2H3

> <InChI Key_QSARr>
KWGRBVOPPLSCSI-UHFFFAOYSA-N

> <Salt_Solvent>
OS(=O)(=O)O

> <Salt_Solvent_ID>
2042

> <Number of connected components>
3

$$$$
Molecule_1755
  Mrv2316 01072400032D          

 16 15  0  0  0  0            999 V2000
    4.7586    3.5724    0.0000 C   0  0  0  0  0  0  0  0  0  0  0  0
    5.4730    3.9849    0.0000 C   0  0  0  0  0  0  0  0  0  0  0  0
    5.4730    4.8099    0.0000 C   0  0  0  0  0  0  0  0  0  0  0  0
    6.1875    3.5724    0.0000 C   0  0  0  0  0  0  0  0  0  0  0  0
    6.1875    2.7474    0.0000 O   0  0  0  0  0  0  0  0  0  0  0  0
    6.9020    3.9849    0.0000 O   0  0  0  0  0  0  0  0  0  0  0  0
    7.6164    3.5724    0.0000 C   0  0  0  0  0  0  0  0  0  0  0  0
    8.3309    3.9849    0.0000 C   0  0  0  0  0  0  0  0  0  0  0  0
    9.0454    3.5724    0.0000 C   0  0  0  0  0  0  0  0  0  0  0  0
    9.7599    3.9849    0.0000 C   0  0  0  0  0  0  0  0  0  0  0  0
   10.4743    3.5724    0.0000 C   0  0  0  0  0  0  0  0  0  0  0  0
   11.1888    3.9849    0.0000 C   0  0  0  0  0  0  0  0  0  0  0  0
   11.9033    3.5724    0.0000 C   0  0  0  0  0  0  0  0  0  0  0  0
   12.6177    3.9849    0.0000 C   0  0  0  0  0  0  0  0  0  0  0  0
   13.3322    3.5724    0.0000 C   0  0  0  0  0  0  0  0  0  0  0  0
   14.0467    3.9849    0.0000 C   0  0  0  0  0  0  0  0  0  0  0  0
  1  2  1  0  0  0  0
  2  3  2  0  0  0  0
  2  4  1  0  0  0  0
  4  5  2  0  0  0  0
  4  6  1  0  0  0  0
  6  7  1  0  0  0  0
  7  8  1  0  0  0  0
  8  9  1  0  0  0  0
  9 10  1  0  0  0  0
 10 11  1  0  0  0  0
 11 12  1  0  0  0  0
 12 13  1  0  0  0  0
 13 14  1  0  0  0  0
 14 15  1  0  0  0  0
 15 16  1  0  0  0  0
M  END
> <RowID>
1755

> <Original_SMILES>
CC(=C)C(=O)OCCCCCCCCCC

> <Canonical_QSARr>
CC(=C)C(=O)OCCCCCCCCCC

> <InChI_Code_QSARr>
InChI=1S/C14H26O2/c1-4-5-6-7-8-9-10-11-12-16-14(15)13(2)3/h2,4-12H2,1,3H3

> <InChI Key_QSARr>
GTBGXKPAKVYEKJ-UHFFFAOYSA-N

> <Salt_Solvent>


> <Salt_Solvent_ID>
0

> <Number of connected components>
1

$$$$
Molecule_1756
  Mrv2316 01072400032D          

 22 22  0  0  0  0            999 V2000
    2.4585   -0.4332    0.0000 O   0  0  0  0  0  0  0  0  0  0  0  0
    2.0460    0.2812    0.0000 P   0  0  0  0  0  0  0  0  0  0  0  0
    1.6335    0.9957    0.0000 O   0  0  0  0  0  0  0  0  0  0  0  0
    1.3315   -0.1313    0.0000 C   0  0  0  0  0  0  0  0  0  0  0  0
    0.6170    0.2812    0.0000 C   0  0  0  0  0  0  0  0  0  0  0  0
    0.6170    1.1063    0.0000 C   0  0  0  0  0  0  0  0  0  0  0  0
   -0.0974    1.5188    0.0000 C   0  0  0  0  0  0  0  0  0  0  0  0
   -0.0974    2.3438    0.0000 C   0  0  0  0  0  0  0  0  0  0  0  0
   -0.0974    3.1687    0.0000 C   0  0  0  0  0  0  0  0  0  0  0  0
   -0.9224    2.3438    0.0000 C   0  0  0  0  0  0  0  0  0  0  0  0
    0.7276    2.3438    0.0000 C   0  0  0  0  0  0  0  0  0  0  0  0
   -0.8119    1.1063    0.0000 C   0  0  0  0  0  0  0  0  0  0  0  0
   -1.5264    1.5188    0.0000 O   0  0  0  0  0  0  0  0  0  0  0  0
   -0.8119    0.2813    0.0000 C   0  0  0  0  0  0  0  0  0  0  0  0
   -1.5264   -0.1312    0.0000 C   0  0  0  0  0  0  0  0  0  0  0  0
   -2.2408   -0.5438    0.0000 C   0  0  0  0  0  0  0  0  0  0  0  0
   -1.1139   -0.8457    0.0000 C   0  0  0  0  0  0  0  0  0  0  0  0
   -1.9389    0.5832    0.0000 C   0  0  0  0  0  0  0  0  0  0  0  0
   -0.0974   -0.1312    0.0000 C   0  0  0  0  0  0  0  0  0  0  0  0
    2.7605    0.6937    0.0000 O   0  0  0  0  0  0  0  0  0  0  0  0
    3.4749    0.2812    0.0000 C   0  0  0  0  0  0  0  0  0  0  0  0
    4.1894    0.6937    0.0000 C   0  0  0  0  0  0  0  0  0  0  0  0
  1  2  1  0  0  0  0
  2  3  2  0  0  0  0
  2  4  1  0  0  0  0
  4  5  1  0  0  0  0
  6  5  2  0  0  0  0
  7  6  1  0  0  0  0
  7  8  1  0  0  0  0
  8  9  1  0  0  0  0
  8 10  1  0  0  0  0
  8 11  1  0  0  0  0
 12  7  2  0  0  0  0
 12 13  1  0  0  0  0
 14 12  1  0  0  0  0
 14 15  1  0  0  0  0
 15 16  1  0  0  0  0
 15 17  1  0  0  0  0
 15 18  1  0  0  0  0
 19 14  2  0  0  0  0
  5 19  1  0  0  0  0
  2 20  1  0  0  0  0
 20 21  1  0  0  0  0
 21 22  1  0  0  0  0
M  END
> <RowID>
1756

> <Original_SMILES>
[Ca+2].CC(C)(C)C1=CC(CP([O-])(=O)OCC)=CC(=C1O)C(C)(C)C.CC(C)(C)C1=CC(CP([O-])(=O)OCC)=CC(=C1O)C(C)(C)C

> <Canonical_QSARr>
CCOP(O)(=O)CC1=CC(=C(O)C(=C1)C(C)(C)C)C(C)(C)C

> <InChI_Code_QSARr>
InChI=1S/C17H29O4P/c1-8-21-22(19,20)11-12-9-13(16(2,3)4)15(18)14(10-12)17(5,6)7/h9-10,18H,8,11H2,1-7H3,(H,19,20)

> <InChI Key_QSARr>
WBSRIXCTCFFHEF-UHFFFAOYSA-N

> <Salt_Solvent>
[Ca+2]

> <Salt_Solvent_ID>
200

> <Number of connected components>
3

$$$$
Molecule_1757
  Mrv2316 01072400032D          

  8  8  0  0  0  0            999 V2000
    2.1434   -0.4125    0.0000 C   0  0  0  0  0  0  0  0  0  0  0  0
    1.4289   -0.0000    0.0000 C   0  0  0  0  0  0  0  0  0  0  0  0
    1.4289    0.8250    0.0000 C   0  0  0  0  0  0  0  0  0  0  0  0
    0.7145    1.2375    0.0000 C   0  0  0  0  0  0  0  0  0  0  0  0
    0.7145    2.0625    0.0000 C   0  0  0  0  0  0  0  0  0  0  0  0
   -0.0000    0.8250    0.0000 C   0  0  0  0  0  0  0  0  0  0  0  0
   -0.0000    0.0000    0.0000 C   0  0  0  0  0  0  0  0  0  0  0  0
    0.7145   -0.4125    0.0000 C   0  0  0  0  0  0  0  0  0  0  0  0
  1  2  1  0  0  0  0
  3  2  2  0  0  0  0
  4  3  1  0  0  0  0
  4  5  1  0  0  0  0
  6  4  2  0  0  0  0
  7  6  1  0  0  0  0
  8  7  2  0  0  0  0
  2  8  1  0  0  0  0
M  END
> <RowID>
1757

> <Original_SMILES>
CC1=CC(C)=CC=C1

> <Canonical_QSARr>
CC1=CC(C)=CC=C1

> <InChI_Code_QSARr>
InChI=1S/C8H10/c1-7-4-3-5-8(2)6-7/h3-6H,1-2H3

> <InChI Key_QSARr>
IVSZLXZYQVIEFR-UHFFFAOYSA-N

> <Salt_Solvent>


> <Salt_Solvent_ID>
0

> <Number of connected components>
1

$$$$
Molecule_1758
  Mrv2316 01072400032D          

 13 13  0  0  0  0            999 V2000
    0.7145   -1.8087    0.0000 C   0  0  0  0  0  0  0  0  0  0  0  0
    0.7145   -0.9837    0.0000 C   0  0  0  0  0  0  0  0  0  0  0  0
    1.5395   -0.9837    0.0000 C   0  0  0  0  0  0  0  0  0  0  0  0
   -0.1105   -0.9837    0.0000 C   0  0  0  0  0  0  0  0  0  0  0  0
    0.7145   -0.1587    0.0000 C   0  0  0  0  0  0  0  0  0  0  0  0
    1.4289    0.2538    0.0000 C   0  0  0  0  0  0  0  0  0  0  0  0
    1.4289    1.0788    0.0000 C   0  0  0  0  0  0  0  0  0  0  0  0
    0.7145    1.4913    0.0000 C   0  0  0  0  0  0  0  0  0  0  0  0
    0.7145    2.3163    0.0000 C   0  0  0  0  0  0  0  0  0  0  0  0
    0.0000    2.7288    0.0000 O   0  0  0  0  0  0  0  0  0  0  0  0
    1.4289    2.7288    0.0000 O   0  0  0  0  0  0  0  0  0  0  0  0
    0.0000    1.0788    0.0000 C   0  0  0  0  0  0  0  0  0  0  0  0
    0.0000    0.2538    0.0000 C   0  0  0  0  0  0  0  0  0  0  0  0
  1  2  1  0  0  0  0
  2  3  1  0  0  0  0
  2  4  1  0  0  0  0
  2  5  1  0  0  0  0
  6  5  1  0  0  0  0
  7  6  2  0  0  0  0
  8  7  1  0  0  0  0
  8  9  1  0  0  0  0
  9 10  1  0  0  0  0
  9 11  2  0  0  0  0
 12  8  2  0  0  0  0
 13 12  1  0  0  0  0
  5 13  2  0  0  0  0
M  END
> <RowID>
1758

> <Original_SMILES>
CC(C)(C)C1C=CC(=CC=1)C(O)=O

> <Canonical_QSARr>
CC(C)(C)C1C=CC(=CC=1)C(O)=O

> <InChI_Code_QSARr>
InChI=1S/C11H14O2/c1-11(2,3)9-6-4-8(5-7-9)10(12)13/h4-7H,1-3H3,(H,12,13)

> <InChI Key_QSARr>
KDVYCTOWXSLNNI-UHFFFAOYSA-N

> <Salt_Solvent>


> <Salt_Solvent_ID>
0

> <Number of connected components>
1

$$$$
Molecule_1759
  Mrv2316 01072400032D          

 29 30  0  0  0  0            999 V2000
   -0.1232   -4.5659    0.0000 O   0  5  0  0  0  0  0  0  0  0  0  0
   -0.1232   -3.7409    0.0000 N   0  3  0  0  0  0  0  0  0  0  0  0
    0.5913   -3.3284    0.0000 O   0  0  0  0  0  0  0  0  0  0  0  0
   -0.8377   -3.3284    0.0000 C   0  0  0  0  0  0  0  0  0  0  0  0
   -0.8377   -2.5034    0.0000 C   0  0  0  0  0  0  0  0  0  0  0  0
   -0.1232   -2.0909    0.0000 N   0  0  0  0  0  0  0  0  0  0  0  0
    0.5913   -2.5034    0.0000 N   0  0  0  0  0  0  0  0  0  0  0  0
    1.3058   -2.0909    0.0000 C   0  0  0  0  0  0  0  0  0  0  0  0
    1.3058   -1.2659    0.0000 C   0  0  0  0  0  0  0  0  0  0  0  0
    0.5913   -0.8534    0.0000 C   0  0  0  0  0  0  0  0  0  0  0  0
    2.0202   -0.8534    0.0000 O   0  0  0  0  0  0  0  0  0  0  0  0
    2.0202   -2.5034    0.0000 C   0  0  0  0  0  0  0  0  0  0  0  0
    2.7347   -2.0909    0.0000 N   0  0  0  0  0  0  0  0  0  0  0  0
    3.4492   -2.5034    0.0000 C   0  0  0  0  0  0  0  0  0  0  0  0
    3.4492   -3.3284    0.0000 C   0  0  0  0  0  0  0  0  0  0  0  0
    2.7347   -3.7409    0.0000 Cl  0  0  0  0  0  0  0  0  0  0  0  0
    4.1636   -3.7409    0.0000 C   0  0  0  0  0  0  0  0  0  0  0  0
    4.8781   -3.3284    0.0000 C   0  0  0  0  0  0  0  0  0  0  0  0
    4.8781   -2.5034    0.0000 C   0  0  0  0  0  0  0  0  0  0  0  0
    4.1636   -2.0909    0.0000 C   0  0  0  0  0  0  0  0  0  0  0  0
    2.0202   -3.3284    0.0000 O   0  0  0  0  0  0  0  0  0  0  0  0
   -1.5521   -2.0909    0.0000 C   0  0  0  0  0  0  0  0  0  0  0  0
   -2.2666   -2.5034    0.0000 C   0  0  0  0  0  0  0  0  0  0  0  0
   -2.2666   -3.3284    0.0000 C   0  0  0  0  0  0  0  0  0  0  0  0
   -2.9811   -3.7409    0.0000 S   0  0  0  0  0  0  0  0  0  0  0  0
   -3.6955   -4.1534    0.0000 O   0  0  0  0  0  0  0  0  0  0  0  0
   -3.3936   -3.0265    0.0000 O   0  0  0  0  0  0  0  0  0  0  0  0
   -2.5686   -4.4554    0.0000 O   0  0  0  0  0  0  0  0  0  0  0  0
   -1.5521   -3.7409    0.0000 C   0  0  0  0  0  0  0  0  0  0  0  0
  1  2  1  0  0  0  0
  2  3  2  0  0  0  0
  2  4  1  0  0  0  0
  5  4  2  0  0  0  0
  6  5  1  4  0  0  0
  6  7  2  0  0  0  0
  7  8  1  0  0  0  0
  8  9  1  0  0  0  0
  9 10  1  0  0  0  0
  9 11  2  0  0  0  0
  8 12  1  0  0  0  0
 12 13  1  0  0  0  0
 13 14  1  0  0  0  0
 15 14  2  0  0  0  0
 15 16  1  0  0  0  0
 17 15  1  0  0  0  0
 18 17  2  0  0  0  0
 19 18  1  0  0  0  0
 20 19  2  0  0  0  0
 14 20  1  0  0  0  0
 12 21  2  0  0  0  0
 22  5  1  0  0  0  0
 23 22  2  0  0  0  0
 24 23  1  0  0  0  0
 24 25  1  0  0  0  0
 25 26  1  0  0  0  0
 25 27  2  0  0  0  0
 25 28  2  0  0  0  0
 29 24  2  0  0  0  0
  4 29  1  0  0  0  0
M  CHG  2   1  -1   2   1
M  END
> <RowID>
1759

> <Original_SMILES>
[Ca+2].CC(=O)C(N=NC1C=CC(=CC=1[N+]([O-])=O)S([O-])(=O)=O)C(=O)NC1C=CC=CC=1Cl.CC(=O)C(N=NC1C=CC(=CC=1[N+]([O-])=O)S([O-])(=O)=O)C(=O)NC1C=CC=CC=1Cl.CC(=O)C(N=NC1C=CC(=CC=1[N+]([O-])=O)S([O-])(=O)=O)C(=O)NC1C=CC=CC=1Cl.CC(=O)C(N=NC1C=CC(=CC=1[N+]([O-])=O)S([O-])(=O)=O)C(=O)NC1C=CC=CC=1Cl

> <Canonical_QSARr>
CC(=O)C(N=NC1C=CC(=CC=1[N+]([O-])=O)S(O)(=O)=O)C(=O)NC1C=CC=CC=1Cl

> <InChI_Code_QSARr>
InChI=1S/C16H13ClN4O7S/c1-9(22)15(16(23)18-12-5-3-2-4-11(12)17)20-19-13-7-6-10(29(26,27)28)8-14(13)21(24)25/h2-8,15H,1H3,(H,18,23)(H,26,27,28)

> <InChI Key_QSARr>
SOHDXWQRPBWYOO-UHFFFAOYSA-N

> <Salt_Solvent>
[Ca+2]

> <Salt_Solvent_ID>
200

> <Number of connected components>
5

$$$$
Molecule_1760
  Mrv2316 01072400032D          

 10  9  0  0  0  0            999 V2000
    0.7145   -2.6664    0.0000 N   0  0  0  0  0  0  0  0  0  0  0  0
    0.7145   -3.4914    0.0000 C   0  0  0  0  0  0  0  0  0  0  0  0
    1.4289   -3.9039    0.0000 C   0  0  0  0  0  0  0  0  0  0  0  0
    1.4289   -4.7289    0.0000 O   0  0  0  0  0  0  0  0  0  0  0  0
   -0.0000   -2.2539    0.0000 C   0  0  0  0  0  0  0  0  0  0  0  0
   -0.0000   -1.4289    0.0000 C   0  0  0  0  0  0  0  0  0  0  0  0
   -0.7145   -1.0164    0.0000 O   0  0  0  0  0  0  0  0  0  0  0  0
    1.4289   -2.2539    0.0000 C   0  0  0  0  0  0  0  0  0  0  0  0
    1.4289   -1.4289    0.0000 C   0  0  0  0  0  0  0  0  0  0  0  0
    2.1434   -1.0164    0.0000 O   0  0  0  0  0  0  0  0  0  0  0  0
  1  2  1  0  0  0  0
  2  3  1  0  0  0  0
  3  4  1  0  0  0  0
  1  5  1  0  0  0  0
  5  6  1  0  0  0  0
  6  7  1  0  0  0  0
  1  8  1  0  0  0  0
  8  9  1  0  0  0  0
  9 10  1  0  0  0  0
M  END
> <RowID>
1760

> <Original_SMILES>
CC([O-])=O.OCC[NH+](CCO)CCO

> <Canonical_QSARr>
OCCN(CCO)CCO

> <InChI_Code_QSARr>
InChI=1S/C6H15NO3/c8-4-1-7(2-5-9)3-6-10/h8-10H,1-6H2

> <InChI Key_QSARr>
GSEJCLTVZPLZKY-UHFFFAOYSA-N

> <Salt_Solvent>
CC(=O)[O-]

> <Salt_Solvent_ID>
1768

> <Number of connected components>
2

$$$$
Molecule_1761
  Mrv2316 01072400032D          

  4  3  0  0  0  0            999 V2000
    2.0625   -0.7145    0.0000 C   0  0  0  0  0  0  0  0  0  0  0  0
    1.2375   -0.7145    0.0000 O   0  0  0  0  0  0  0  0  0  0  0  0
    0.8250   -0.0000    0.0000 C   0  0  0  0  0  0  0  0  0  0  0  0
    0.0000   -0.0000    0.0000 C   0  0  0  0  0  0  0  0  0  0  0  0
  1  2  1  0  0  0  0
  2  3  1  0  0  0  0
  3  4  2  0  0  0  0
M  END
> <RowID>
1761

> <Original_SMILES>
COC=C

> <Canonical_QSARr>
COC=C

> <InChI_Code_QSARr>
InChI=1S/C3H6O/c1-3-4-2/h3H,1H2,2H3

> <InChI Key_QSARr>
XJRBAMWJDBPFIM-UHFFFAOYSA-N

> <Salt_Solvent>


> <Salt_Solvent_ID>
0

> <Number of connected components>
1

$$$$
Molecule_1762
  Mrv2316 01072400032D          

  4  3  0  0  0  0            999 V2000
    1.2375    0.7145    0.0000 O   0  0  0  0  0  0  0  0  0  0  0  0
    0.8250   -0.0000    0.0000 C   0  0  0  0  0  0  0  0  0  0  0  0
    1.2375   -0.7145    0.0000 O   0  0  0  0  0  0  0  0  0  0  0  0
    0.0000   -0.0000    0.0000 C   0  0  0  0  0  0  0  0  0  0  0  0
  1  2  1  0  0  0  0
  2  3  2  0  0  0  0
  2  4  1  0  0  0  0
M  END
> <RowID>
1762

> <Original_SMILES>
[Mg+2].CC([O-])=O.CC([O-])=O

> <Canonical_QSARr>
CC(O)=O

> <InChI_Code_QSARr>
InChI=1S/C2H4O2/c1-2(3)4/h1H3,(H,3,4)

> <InChI Key_QSARr>
QTBSBXVTEAMEQO-UHFFFAOYSA-N

> <Salt_Solvent>
[Mg+2]

> <Salt_Solvent_ID>
120

> <Number of connected components>
3

$$$$
Molecule_1763
  Mrv2316 01072400032D          

 23 25  0  0  0  0            999 V2000
    2.4820    0.5756    0.0000 C   0  0  0  0  0  0  0  0  0  0  0  0
    3.1964    0.1631    0.0000 C   0  0  0  0  0  0  0  0  0  0  0  0
    3.1964   -0.6619    0.0000 C   0  0  0  0  0  0  0  0  0  0  0  0
    3.9109    0.5756    0.0000 C   0  0  0  0  0  0  0  0  0  0  0  0
    4.6254    0.1631    0.0000 O   0  0  0  0  0  0  0  0  0  0  0  0
    5.3398    0.5756    0.0000 C   0  0  0  0  0  0  0  0  0  0  0  0
    5.3398    1.4006    0.0000 O   0  0  0  0  0  0  0  0  0  0  0  0
    6.0543    0.1631    0.0000 C   0  0  0  0  0  0  0  0  0  0  0  0
    6.8080    0.4987    0.0000 N   0  0  0  0  0  0  0  0  0  0  0  0
    7.3600   -0.1144    0.0000 N   0  0  0  0  0  0  0  0  0  0  0  0
    8.1805   -0.0282    0.0000 C   0  0  0  0  0  0  0  0  0  0  0  0
    8.6654   -0.6956    0.0000 C   0  0  0  0  0  0  0  0  0  0  0  0
    8.3299   -1.4493    0.0000 C   0  0  0  0  0  0  0  0  0  0  0  0
    8.8148   -2.1167    0.0000 C   0  0  0  0  0  0  0  0  0  0  0  0
    9.6353   -2.0305    0.0000 C   0  0  0  0  0  0  0  0  0  0  0  0
    9.9708   -1.2768    0.0000 C   0  0  0  0  0  0  0  0  0  0  0  0
    9.4859   -0.6094    0.0000 C   0  0  0  0  0  0  0  0  0  0  0  0
    6.9475   -0.8289    0.0000 C   0  0  0  0  0  0  0  0  0  0  0  0
    7.2025   -1.6135    0.0000 C   0  0  0  0  0  0  0  0  0  0  0  0
    6.6504   -2.2266    0.0000 C   0  0  0  0  0  0  0  0  0  0  0  0
    5.8435   -2.0551    0.0000 C   0  0  0  0  0  0  0  0  0  0  0  0
    5.5885   -1.2705    0.0000 C   0  0  0  0  0  0  0  0  0  0  0  0
    6.1406   -0.6574    0.0000 C   0  0  0  0  0  0  0  0  0  0  0  0
  1  2  1  0  0  0  0
  2  3  1  0  0  0  0
  2  4  1  0  0  0  0
  4  5  1  0  0  0  0
  5  6  1  0  0  0  0
  6  7  2  0  0  0  0
  6  8  1  0  0  0  0
  9  8  2  0  0  0  0
 10  9  1  0  0  0  0
 10 11  1  0  0  0  0
 11 12  1  0  0  0  0
 13 12  1  0  0  0  0
 14 13  2  0  0  0  0
 15 14  1  0  0  0  0
 16 15  2  0  0  0  0
 17 16  1  0  0  0  0
 12 17  2  0  0  0  0
 18 10  1  0  0  0  0
 18 19  2  0  0  0  0
 19 20  1  0  0  0  0
 20 21  2  0  0  0  0
 21 22  1  0  0  0  0
 22 23  2  0  0  0  0
  8 23  1  0  0  0  0
 23 18  1  0  0  0  0
M  END
> <RowID>
1763

> <Original_SMILES>
CC(C)COC(=O)C1=NN(CC2C=CC=CC=2)C2=CC=CC=C21

> <Canonical_QSARr>
CC(C)COC(=O)C1=NN(CC2C=CC=CC=2)C2=CC=CC=C21

> <InChI_Code_QSARr>
InChI=1S/C19H20N2O2/c1-14(2)13-23-19(22)18-16-10-6-7-11-17(16)21(20-18)12-15-8-4-3-5-9-15/h3-11,14H,12-13H2,1-2H3

> <InChI Key_QSARr>
MJJXDAPHPKBWRL-UHFFFAOYSA-N

> <Salt_Solvent>


> <Salt_Solvent_ID>
0

> <Number of connected components>
1

$$$$
Molecule_1764
  Mrv2316 01072400032D          

 43 46  0  0  0  0            999 V2000
   -4.3865    0.9977    0.0000 N   0  0  0  0  0  0  0  0  0  0  0  0
   -4.3865    0.1727    0.0000 C   0  0  0  0  0  0  0  0  0  0  0  0
   -5.1010   -0.2398    0.0000 O   0  0  0  0  0  0  0  0  0  0  0  0
   -3.6720   -0.2398    0.0000 N   0  0  0  0  0  0  0  0  0  0  0  0
   -3.6720   -1.0648    0.0000 C   0  0  0  0  0  0  0  0  0  0  0  0
   -4.3865   -1.4773    0.0000 C   0  0  0  0  0  0  0  0  0  0  0  0
   -4.3865   -2.3023    0.0000 C   0  0  0  0  0  0  0  0  0  0  0  0
   -5.1010   -2.7148    0.0000 N   0  0  0  0  0  0  0  0  0  0  0  0
   -5.1010   -3.5398    0.0000 C   0  0  0  0  0  0  0  0  0  0  0  0
   -5.8155   -3.9523    0.0000 N   0  0  0  0  0  0  0  0  0  0  0  0
   -5.8155   -4.7773    0.0000 C   0  0  0  0  0  0  0  0  0  0  0  0
   -6.5299   -5.1898    0.0000 Cl  0  0  0  0  0  0  0  0  0  0  0  0
   -5.1010   -5.1898    0.0000 N   0  0  0  0  0  0  0  0  0  0  0  0
   -4.3865   -4.7773    0.0000 C   0  0  0  0  0  0  0  0  0  0  0  0
   -3.6720   -5.1898    0.0000 N   0  0  0  0  0  0  0  0  0  0  0  0
   -4.3865   -3.9523    0.0000 N   0  0  0  0  0  0  0  0  0  0  0  0
   -3.6720   -2.7148    0.0000 C   0  0  0  0  0  0  0  0  0  0  0  0
   -2.9576   -2.3023    0.0000 C   0  0  0  0  0  0  0  0  0  0  0  0
   -2.9576   -1.4773    0.0000 C   0  0  0  0  0  0  0  0  0  0  0  0
   -2.2431   -1.0648    0.0000 N   0  0  0  0  0  0  0  0  0  0  0  0
   -1.5286   -1.4773    0.0000 N   0  0  0  0  0  0  0  0  0  0  0  0
   -0.8142   -1.0648    0.0000 C   0  0  0  0  0  0  0  0  0  0  0  0
   -0.0997   -1.4773    0.0000 C   0  0  0  0  0  0  0  0  0  0  0  0
    0.6148   -1.0648    0.0000 C   0  0  0  0  0  0  0  0  0  0  0  0
    0.6148   -0.2398    0.0000 C   0  0  0  0  0  0  0  0  0  0  0  0
    1.3293    0.1727    0.0000 C   0  0  0  0  0  0  0  0  0  0  0  0
    2.0437   -0.2398    0.0000 C   0  0  0  0  0  0  0  0  0  0  0  0
    2.0437   -1.0648    0.0000 C   0  0  0  0  0  0  0  0  0  0  0  0
    1.3293   -1.4773    0.0000 C   0  0  0  0  0  0  0  0  0  0  0  0
    1.3293   -2.3023    0.0000 S   0  0  0  0  0  0  0  0  0  0  0  0
    1.3293   -3.1273    0.0000 O   0  0  0  0  0  0  0  0  0  0  0  0
    0.5043   -2.3023    0.0000 O   0  0  0  0  0  0  0  0  0  0  0  0
    2.1543   -2.3023    0.0000 O   0  0  0  0  0  0  0  0  0  0  0  0
    2.7582    0.1727    0.0000 S   0  0  0  0  0  0  0  0  0  0  0  0
    3.4727    0.5852    0.0000 O   0  0  0  0  0  0  0  0  0  0  0  0
    3.1707   -0.5418    0.0000 O   0  0  0  0  0  0  0  0  0  0  0  0
    2.3457    0.8871    0.0000 O   0  0  0  0  0  0  0  0  0  0  0  0
   -0.0997    0.1727    0.0000 C   0  0  0  0  0  0  0  0  0  0  0  0
   -0.8142   -0.2398    0.0000 C   0  0  0  0  0  0  0  0  0  0  0  0
   -1.5286    0.1727    0.0000 S   0  0  0  0  0  0  0  0  0  0  0  0
   -2.2431    0.5852    0.0000 O   0  0  0  0  0  0  0  0  0  0  0  0
   -1.9411   -0.5418    0.0000 O   0  0  0  0  0  0  0  0  0  0  0  0
   -1.1161    0.8871    0.0000 O   0  0  0  0  0  0  0  0  0  0  0  0
  1  2  1  0  0  0  0
  2  3  2  0  0  0  0
  2  4  1  0  0  0  0
  4  5  1  0  0  0  0
  6  5  2  0  0  0  0
  7  6  1  0  0  0  0
  7  8  1  0  0  0  0
  8  9  1  0  0  0  0
 10  9  2  0  0  0  0
 11 10  1  0  0  0  0
 11 12  1  0  0  0  0
 13 11  2  0  0  0  0
 14 13  1  0  0  0  0
 14 15  1  0  0  0  0
 16 14  2  0  0  0  0
  9 16  1  0  0  0  0
 17  7  2  0  0  0  0
 18 17  1  0  0  0  0
 19 18  2  0  0  0  0
  5 19  1  0  0  0  0
 20 19  1  4  0  0  0
 20 21  2  0  0  0  0
 21 22  1  0  0  0  0
 23 22  1  0  0  0  0
 24 23  2  0  0  0  0
 24 25  1  0  0  0  0
 25 26  1  0  0  0  0
 26 27  2  0  0  0  0
 27 28  1  0  0  0  0
 28 29  2  0  0  0  0
 29 24  1  0  0  0  0
 29 30  1  0  0  0  0
 30 31  1  0  0  0  0
 30 32  2  0  0  0  0
 30 33  2  0  0  0  0
 27 34  1  0  0  0  0
 34 35  1  0  0  0  0
 34 36  2  0  0  0  0
 34 37  2  0  0  0  0
 38 25  2  0  0  0  0
 39 38  1  0  0  0  0
 22 39  2  0  0  0  0
 39 40  1  0  0  0  0
 40 41  1  0  0  0  0
 40 42  2  0  0  0  0
 40 43  2  0  0  0  0
M  END
> <RowID>
1764

> <Original_SMILES>
NC(=O)NC1=CC(=CC=C1N=NC1C=C2C(=CC=1S(O)(=O)=O)C=C(C=C2S(O)(=O)=O)S(O)(=O)=O)NC1=NC(Cl)=NC(N)=N1

> <Canonical_QSARr>
NC(=O)NC1=CC(=CC=C1N=NC1C=C2C(=CC=1S(O)(=O)=O)C=C(C=C2S(O)(=O)=O)S(O)(=O)=O)NC1=NC(Cl)=NC(N)=N1

> <InChI_Code_QSARr>
InChI=1S/C20H16ClN9O10S3/c21-17-26-18(22)28-20(27-17)24-9-1-2-12(13(5-9)25-19(23)31)29-30-14-7-11-8(4-16(14)43(38,39)40)3-10(41(32,33)34)6-15(11)42(35,36)37/h1-7H,(H3,23,25,31)(H,32,33,34)(H,35,36,37)(H,38,39,40)(H3,22,24,26,27,28)

> <InChI Key_QSARr>
GFPPLTJOYVDEIS-UHFFFAOYSA-N

> <Salt_Solvent>


> <Salt_Solvent_ID>
0

> <Number of connected components>
1

$$$$
Molecule_1765
  Mrv2316 01072400032D          

 17 16  0  0  0  0            999 V2000
    2.2539    3.0789    0.0000 C   0  0  0  0  0  0  0  0  0  0  0  0
    1.5395    2.6664    0.0000 C   0  0  0  0  0  0  0  0  0  0  0  0
    1.5395    1.8414    0.0000 O   0  0  0  0  0  0  0  0  0  0  0  0
    0.8250    1.4289    0.0000 Si  0  0  0  0  0  0  0  0  0  0  0  0
    0.1105    1.0164    0.0000 C   0  0  0  0  0  0  0  0  0  0  0  0
   -0.6039    1.4289    0.0000 C   0  0  0  0  0  0  0  0  0  0  0  0
   -1.3184    1.0164    0.0000 C   0  0  0  0  0  0  0  0  0  0  0  0
   -1.3184    0.1914    0.0000 N   0  0  0  0  0  0  0  0  0  0  0  0
   -2.0329   -0.2211    0.0000 C   0  0  0  0  0  0  0  0  0  0  0  0
   -2.0329   -1.0461    0.0000 N   0  0  0  0  0  0  0  0  0  0  0  0
   -2.7474    0.1914    0.0000 O   0  0  0  0  0  0  0  0  0  0  0  0
    0.4125    2.1434    0.0000 O   0  0  0  0  0  0  0  0  0  0  0  0
   -0.4125    2.1434    0.0000 C   0  0  0  0  0  0  0  0  0  0  0  0
   -0.8250    2.8579    0.0000 C   0  0  0  0  0  0  0  0  0  0  0  0
    1.2375    0.7144    0.0000 O   0  0  0  0  0  0  0  0  0  0  0  0
    0.8250   -0.0000    0.0000 C   0  0  0  0  0  0  0  0  0  0  0  0
   -0.0000   -0.0000    0.0000 C   0  0  0  0  0  0  0  0  0  0  0  0
  1  2  1  0  0  0  0
  2  3  1  0  0  0  0
  3  4  1  0  0  0  0
  4  5  1  0  0  0  0
  5  6  1  0  0  0  0
  6  7  1  0  0  0  0
  7  8  1  0  0  0  0
  8  9  1  0  0  0  0
  9 10  1  0  0  0  0
  9 11  2  0  0  0  0
  4 12  1  0  0  0  0
 12 13  1  0  0  0  0
 13 14  1  0  0  0  0
  4 15  1  0  0  0  0
 15 16  1  0  0  0  0
 16 17  1  0  0  0  0
M  END
> <RowID>
1765

> <Original_SMILES>
CCO[Si](CCCNC(N)=O)(OCC)OCC

> <Canonical_QSARr>
CCO[Si](CCCNC(N)=O)(OCC)OCC

> <InChI_Code_QSARr>
InChI=1S/C10H24N2O4Si/c1-4-14-17(15-5-2,16-6-3)9-7-8-12-10(11)13/h4-9H2,1-3H3,(H3,11,12,13)

> <InChI Key_QSARr>
LVNLBBGBASVLLI-UHFFFAOYSA-N

> <Salt_Solvent>


> <Salt_Solvent_ID>
0

> <Number of connected components>
1

$$$$
Molecule_1766
  Mrv2316 01072400032D          

 23 24  0  0  0  0            999 V2000
    5.7350   -2.4861    0.0000 Br  0  0  0  0  0  0  0  0  0  0  0  0
    5.0205   -2.8986    0.0000 C   0  0  0  0  0  0  0  0  0  0  0  0
    4.3060   -2.4861    0.0000 C   0  0  0  0  0  0  0  0  0  0  0  0
    4.3060   -1.6611    0.0000 O   0  0  0  0  0  0  0  0  0  0  0  0
    3.5916   -1.2486    0.0000 C   0  0  0  0  0  0  0  0  0  0  0  0
    3.5916   -0.4236    0.0000 C   0  0  0  0  0  0  0  0  0  0  0  0
    4.3060   -0.0111    0.0000 Br  0  0  0  0  0  0  0  0  0  0  0  0
    2.8771   -0.0111    0.0000 C   0  0  0  0  0  0  0  0  0  0  0  0
    2.8771    0.8139    0.0000 Br  0  0  0  0  0  0  0  0  0  0  0  0
    2.1626   -0.4236    0.0000 C   0  0  0  0  0  0  0  0  0  0  0  0
    1.4481   -0.0111    0.0000 Br  0  0  0  0  0  0  0  0  0  0  0  0
    2.1626   -1.2486    0.0000 C   0  0  0  0  0  0  0  0  0  0  0  0
    1.4481   -1.6611    0.0000 Br  0  0  0  0  0  0  0  0  0  0  0  0
    2.8771   -1.6611    0.0000 C   0  0  0  0  0  0  0  0  0  0  0  0
    2.8771   -2.4861    0.0000 Br  0  0  0  0  0  0  0  0  0  0  0  0
    3.5916   -2.8986    0.0000 C   0  0  0  0  0  0  0  0  0  0  0  0
    2.7711   -2.9848    0.0000 Br  0  0  0  0  0  0  0  0  0  0  0  0
    3.5916   -3.7236    0.0000 C   0  0  0  0  0  0  0  0  0  0  0  0
    2.8771   -4.1361    0.0000 Br  0  0  0  0  0  0  0  0  0  0  0  0
    4.3060   -4.1361    0.0000 C   0  0  0  0  0  0  0  0  0  0  0  0
    4.3060   -4.9611    0.0000 Br  0  0  0  0  0  0  0  0  0  0  0  0
    5.0205   -3.7236    0.0000 C   0  0  0  0  0  0  0  0  0  0  0  0
    5.7350   -4.1361    0.0000 Br  0  0  0  0  0  0  0  0  0  0  0  0
  1  2  1  0  0  0  0
  3  2  1  0  0  0  0
  3  4  1  0  0  0  0
  4  5  1  0  0  0  0
  6  5  2  0  0  0  0
  6  7  1  0  0  0  0
  8  6  1  0  0  0  0
  8  9  1  0  0  0  0
 10  8  2  0  0  0  0
 10 11  1  0  0  0  0
 12 10  1  0  0  0  0
 12 13  1  0  0  0  0
 14 12  2  0  0  0  0
  5 14  1  0  0  0  0
 14 15  1  0  0  0  0
 16  3  2  0  0  0  0
 16 17  1  0  0  0  0
 18 16  1  0  0  0  0
 18 19  1  0  0  0  0
 20 18  2  0  0  0  0
 20 21  1  0  0  0  0
 22 20  1  0  0  0  0
  2 22  2  0  0  0  0
 22 23  1  0  0  0  0
M  END
> <RowID>
1766

> <Original_SMILES>
BrC1C(OC2=C(Br)C(Br)=C(Br)C(Br)=C2Br)=C(Br)C(Br)=C(Br)C=1Br

> <Canonical_QSARr>
BrC1C(OC2=C(Br)C(Br)=C(Br)C(Br)=C2Br)=C(Br)C(Br)=C(Br)C=1Br

> <InChI_Code_QSARr>
InChI=1S/C12Br10O/c13-1-3(15)7(19)11(8(20)4(1)16)23-12-9(21)5(17)2(14)6(18)10(12)22

> <InChI Key_QSARr>
WHHGLZMJPXIBIX-UHFFFAOYSA-N

> <Salt_Solvent>


> <Salt_Solvent_ID>
0

> <Number of connected components>
1

$$$$
Molecule_1767
  Mrv2316 01072400032D          

 10 10  0  0  0  0            999 V2000
   -0.0000   -0.8250    0.0000 O   0  5  0  0  0  0  0  0  0  0  0  0
    0.7145   -0.4125    0.0000 N   0  3  0  0  0  0  0  0  0  0  0  0
    1.4289   -0.8250    0.0000 O   0  0  0  0  0  0  0  0  0  0  0  0
    0.7145    0.4125    0.0000 C   0  0  0  0  0  0  0  0  0  0  0  0
    1.4289    0.8250    0.0000 C   0  0  0  0  0  0  0  0  0  0  0  0
    1.4289    1.6500    0.0000 C   0  0  0  0  0  0  0  0  0  0  0  0
    0.7145    2.0625    0.0000 C   0  0  0  0  0  0  0  0  0  0  0  0
    0.7145    2.8875    0.0000 F   0  0  0  0  0  0  0  0  0  0  0  0
   -0.0000    1.6500    0.0000 C   0  0  0  0  0  0  0  0  0  0  0  0
   -0.0000    0.8250    0.0000 C   0  0  0  0  0  0  0  0  0  0  0  0
  1  2  1  0  0  0  0
  2  3  2  0  0  0  0
  2  4  1  0  0  0  0
  5  4  1  0  0  0  0
  6  5  2  0  0  0  0
  7  6  1  0  0  0  0
  7  8  1  0  0  0  0
  9  7  2  0  0  0  0
 10  9  1  0  0  0  0
  4 10  2  0  0  0  0
M  CHG  2   1  -1   2   1
M  END
> <RowID>
1767

> <Original_SMILES>
[O-][N+](=O)C1C=CC(F)=CC=1

> <Canonical_QSARr>
[O-][N+](=O)C1C=CC(F)=CC=1

> <InChI_Code_QSARr>
InChI=1S/C6H4FNO2/c7-5-1-3-6(4-2-5)8(9)10/h1-4H

> <InChI Key_QSARr>
WFQDTOYDVUWQMS-UHFFFAOYSA-N

> <Salt_Solvent>


> <Salt_Solvent_ID>
0

> <Number of connected components>
1

$$$$
Molecule_1768
  Mrv2316 01072400032D          

 23 24  0  0  0  0            999 V2000
    1.4289   -9.4696    0.0000 O   0  0  0  0  0  0  0  0  0  0  0  0
    1.4289   -8.6446    0.0000 S   0  0  0  0  0  0  0  0  0  0  0  0
    2.2539   -8.6446    0.0000 O   0  0  0  0  0  0  0  0  0  0  0  0
    0.6039   -8.6446    0.0000 O   0  0  0  0  0  0  0  0  0  0  0  0
    1.4289   -7.8196    0.0000 C   0  0  0  0  0  0  0  0  0  0  0  0
    2.1434   -7.4071    0.0000 C   0  0  0  0  0  0  0  0  0  0  0  0
    2.1434   -6.5821    0.0000 C   0  0  0  0  0  0  0  0  0  0  0  0
    1.4289   -6.1696    0.0000 C   0  0  0  0  0  0  0  0  0  0  0  0
    1.4289   -5.3446    0.0000 N   0  0  0  0  0  0  0  0  0  0  0  0
    2.1434   -4.9321    0.0000 N   0  0  0  0  0  0  0  0  0  0  0  0
    2.1434   -4.1071    0.0000 C   0  0  0  0  0  0  0  0  0  0  0  0
    2.8579   -3.6946    0.0000 C   0  0  0  0  0  0  0  0  0  0  0  0
    2.8579   -2.8696    0.0000 C   0  0  0  0  0  0  0  0  0  0  0  0
    3.5723   -2.4571    0.0000 S   0  0  0  0  0  0  0  0  0  0  0  0
    4.2868   -2.0446    0.0000 O   0  0  0  0  0  0  0  0  0  0  0  0
    3.9848   -3.1715    0.0000 O   0  0  0  0  0  0  0  0  0  0  0  0
    3.1598   -1.7426    0.0000 O   0  0  0  0  0  0  0  0  0  0  0  0
    2.1434   -2.4571    0.0000 C   0  0  0  0  0  0  0  0  0  0  0  0
    2.1434   -1.6321    0.0000 N   0  0  0  0  0  0  0  0  0  0  0  0
    1.4289   -2.8696    0.0000 C   0  0  0  0  0  0  0  0  0  0  0  0
    1.4289   -3.6946    0.0000 C   0  0  0  0  0  0  0  0  0  0  0  0
    0.7145   -6.5821    0.0000 C   0  0  0  0  0  0  0  0  0  0  0  0
    0.7145   -7.4071    0.0000 C   0  0  0  0  0  0  0  0  0  0  0  0
  1  2  1  0  0  0  0
  2  3  2  0  0  0  0
  2  4  2  0  0  0  0
  2  5  1  0  0  0  0
  6  5  2  0  0  0  0
  7  6  1  0  0  0  0
  8  7  2  0  0  0  0
  9  8  1  4  0  0  0
  9 10  2  0  0  0  0
 10 11  1  0  0  0  0
 12 11  2  0  0  0  0
 13 12  1  0  0  0  0
 13 14  1  0  0  0  0
 14 15  1  0  0  0  0
 14 16  2  0  0  0  0
 14 17  2  0  0  0  0
 18 13  2  0  0  0  0
 18 19  1  0  0  0  0
 20 18  1  0  0  0  0
 21 20  2  0  0  0  0
 11 21  1  0  0  0  0
 22  8  1  0  0  0  0
 23 22  2  0  0  0  0
  5 23  1  0  0  0  0
M  END
> <RowID>
1768

> <Original_SMILES>
[Na+].[Na+].NC1C=CC(=CC=1S([O-])(=O)=O)N=NC1C=CC(=CC=1)S([O-])(=O)=O

> <Canonical_QSARr>
NC1C=CC(=CC=1S(O)(=O)=O)N=NC1C=CC(=CC=1)S(O)(=O)=O

> <InChI_Code_QSARr>
InChI=1S/C12H11N3O6S2/c13-11-6-3-9(7-12(11)23(19,20)21)15-14-8-1-4-10(5-2-8)22(16,17)18/h1-7H,13H2,(H,16,17,18)(H,19,20,21)

> <InChI Key_QSARr>
DCYBHNIOTZBCFS-UHFFFAOYSA-N

> <Salt_Solvent>
[Na+]

> <Salt_Solvent_ID>
110

> <Number of connected components>
3

$$$$
Molecule_1769
  Mrv2316 01072400032D          

 13 12  0  0  0  0            999 V2000
    5.3625    5.0013    0.0000 O   0  0  0  0  0  0  0  0  0  0  0  0
    4.9500    4.2868    0.0000 S   0  0  0  0  0  0  0  0  0  0  0  0
    4.2355    4.6993    0.0000 O   0  0  0  0  0  0  0  0  0  0  0  0
    5.6645    3.8743    0.0000 O   0  0  0  0  0  0  0  0  0  0  0  0
    4.5375    3.5723    0.0000 O   0  0  0  0  0  0  0  0  0  0  0  0
    3.7125    3.5723    0.0000 C   0  0  0  0  0  0  0  0  0  0  0  0
    3.3000    2.8579    0.0000 C   0  0  0  0  0  0  0  0  0  0  0  0
    2.4750    2.8579    0.0000 C   0  0  0  0  0  0  0  0  0  0  0  0
    2.0625    2.1434    0.0000 C   0  0  0  0  0  0  0  0  0  0  0  0
    1.2375    2.1434    0.0000 C   0  0  0  0  0  0  0  0  0  0  0  0
    0.8250    1.4289    0.0000 C   0  0  0  0  0  0  0  0  0  0  0  0
    3.7125    2.1434    0.0000 C   0  0  0  0  0  0  0  0  0  0  0  0
    3.3000    1.4289    0.0000 C   0  0  0  0  0  0  0  0  0  0  0  0
  1  2  1  0  0  0  0
  2  3  2  0  0  0  0
  2  4  2  0  0  0  0
  2  5  1  0  0  0  0
  5  6  1  0  0  0  0
  6  7  1  0  0  0  0
  7  8  1  0  0  0  0
  8  9  1  0  0  0  0
  9 10  1  0  0  0  0
 10 11  1  0  0  0  0
  7 12  1  0  0  0  0
 12 13  1  0  0  0  0
M  END
> <RowID>
1769

> <Original_SMILES>
[Na+].CCCCC(COS([O-])(=O)=O)CC

> <Canonical_QSARr>
CCCCC(COS(O)(=O)=O)CC

> <InChI_Code_QSARr>
InChI=1S/C8H18O4S/c1-3-5-6-8(4-2)7-12-13(9,10)11/h8H,3-7H2,1-2H3,(H,9,10,11)

> <InChI Key_QSARr>
MHGOKSLTIUHUBF-UHFFFAOYSA-N

> <Salt_Solvent>
[Na+]

> <Salt_Solvent_ID>
110

> <Number of connected components>
2

$$$$
Molecule_1770
  Mrv2316 01072400032D          

 16 15  0  0  0  0            999 V2000
    4.7586    3.5724    0.0000 C   0  0  0  0  0  0  0  0  0  0  0  0
    5.4730    3.9849    0.0000 C   0  0  0  0  0  0  0  0  0  0  0  0
    5.4730    4.8099    0.0000 O   0  0  0  0  0  0  0  0  0  0  0  0
    6.1875    3.5724    0.0000 O   0  0  0  0  0  0  0  0  0  0  0  0
    6.9020    3.9849    0.0000 C   0  0  0  0  0  0  0  0  0  0  0  0
    7.6164    3.5724    0.0000 C   0  0  0  0  0  0  0  0  0  0  0  0
    8.3309    3.9849    0.0000 O   0  0  0  0  0  0  0  0  0  0  0  0
    9.0454    3.5724    0.0000 C   0  0  0  0  0  0  0  0  0  0  0  0
    9.7599    3.9849    0.0000 C   0  0  0  0  0  0  0  0  0  0  0  0
   10.4743    3.5724    0.0000 O   0  0  0  0  0  0  0  0  0  0  0  0
   11.1888    3.9849    0.0000 C   0  0  0  0  0  0  0  0  0  0  0  0
   11.9033    3.5724    0.0000 C   0  0  0  0  0  0  0  0  0  0  0  0
   12.6177    3.9849    0.0000 O   0  0  0  0  0  0  0  0  0  0  0  0
   13.3322    3.5724    0.0000 C   0  0  0  0  0  0  0  0  0  0  0  0
   14.0467    3.9849    0.0000 C   0  0  0  0  0  0  0  0  0  0  0  0
   13.3322    2.7474    0.0000 O   0  0  0  0  0  0  0  0  0  0  0  0
  1  2  1  0  0  0  0
  2  3  2  0  0  0  0
  2  4  1  0  0  0  0
  4  5  1  0  0  0  0
  5  6  1  0  0  0  0
  6  7  1  0  0  0  0
  7  8  1  0  0  0  0
  8  9  1  0  0  0  0
  9 10  1  0  0  0  0
 10 11  1  0  0  0  0
 11 12  1  0  0  0  0
 12 13  1  0  0  0  0
 13 14  1  0  0  0  0
 14 15  1  0  0  0  0
 14 16  2  0  0  0  0
M  END
> <RowID>
1770

> <Original_SMILES>
CC(=O)OCCOCCOCCOC(C)=O

> <Canonical_QSARr>
CC(=O)OCCOCCOCCOC(C)=O

> <InChI_Code_QSARr>
InChI=1S/C10H18O6/c1-9(11)15-7-5-13-3-4-14-6-8-16-10(2)12/h3-8H2,1-2H3

> <InChI Key_QSARr>
OVOUKWFJRHALDD-UHFFFAOYSA-N

> <Salt_Solvent>


> <Salt_Solvent_ID>
0

> <Number of connected components>
1

$$$$
Molecule_1771
  Mrv2316 01072400032D          

 36 35  0  0  0  0            999 V2000
   17.1336   10.7171    0.0000 C   0  0  0  0  0  0  0  0  0  0  0  0
   17.8480   11.1296    0.0000 C   0  0  0  0  0  0  0  0  0  0  0  0
   18.5625   10.7171    0.0000 C   0  0  0  0  0  0  0  0  0  0  0  0
   19.2770   11.1296    0.0000 C   0  0  0  0  0  0  0  0  0  0  0  0
   19.9914   10.7171    0.0000 C   0  0  0  0  0  0  0  0  0  0  0  0
   20.7059   11.1296    0.0000 C   0  0  0  0  0  0  0  0  0  0  0  0
   21.4204   10.7171    0.0000 C   0  0  0  0  0  0  0  0  0  0  0  0
   22.1349   11.1296    0.0000 C   0  0  0  0  0  0  0  0  0  0  0  0
   22.8493   10.7171    0.0000 C   0  0  0  0  0  0  0  0  0  0  0  0
   23.5638   11.1296    0.0000 C   0  0  0  0  0  0  0  0  0  0  0  0
   24.2783   10.7171    0.0000 C   0  0  0  0  0  0  0  0  0  0  0  0
   24.9927   11.1296    0.0000 C   0  0  0  0  0  0  0  0  0  0  0  0
   25.7072   10.7171    0.0000 C   0  0  0  0  0  0  0  0  0  0  0  0
   26.4217   11.1296    0.0000 C   0  0  0  0  0  0  0  0  0  0  0  0
   27.1362   10.7171    0.0000 C   0  0  0  0  0  0  0  0  0  0  0  0
   27.8506   11.1296    0.0000 C   0  0  0  0  0  0  0  0  0  0  0  0
   27.8506   11.9546    0.0000 O   0  0  0  0  0  0  0  0  0  0  0  0
   28.5651   10.7171    0.0000 O   0  0  0  0  0  0  0  0  0  0  0  0
   29.2796   11.1296    0.0000 C   0  0  0  0  0  0  0  0  0  0  0  0
   29.9940   10.7171    0.0000 C   0  0  0  0  0  0  0  0  0  0  0  0
   30.7085   11.1296    0.0000 C   0  0  0  0  0  0  0  0  0  0  0  0
   31.4230   10.7171    0.0000 C   0  0  0  0  0  0  0  0  0  0  0  0
   32.1375   11.1296    0.0000 C   0  0  0  0  0  0  0  0  0  0  0  0
   32.8519   10.7171    0.0000 C   0  0  0  0  0  0  0  0  0  0  0  0
   33.5664   11.1296    0.0000 C   0  0  0  0  0  0  0  0  0  0  0  0
   34.2809   10.7171    0.0000 C   0  0  0  0  0  0  0  0  0  0  0  0
   34.9953   11.1296    0.0000 C   0  0  0  0  0  0  0  0  0  0  0  0
   35.7098   10.7171    0.0000 C   0  0  0  0  0  0  0  0  0  0  0  0
   36.4243   11.1296    0.0000 C   0  0  0  0  0  0  0  0  0  0  0  0
   37.1388   10.7171    0.0000 C   0  0  0  0  0  0  0  0  0  0  0  0
   37.8532   11.1296    0.0000 C   0  0  0  0  0  0  0  0  0  0  0  0
   38.5677   10.7171    0.0000 C   0  0  0  0  0  0  0  0  0  0  0  0
   39.2822   11.1296    0.0000 C   0  0  0  0  0  0  0  0  0  0  0  0
   39.9966   10.7171    0.0000 C   0  0  0  0  0  0  0  0  0  0  0  0
   40.7111   11.1296    0.0000 C   0  0  0  0  0  0  0  0  0  0  0  0
   39.9966    9.8921    0.0000 C   0  0  0  0  0  0  0  0  0  0  0  0
  1  2  1  0  0  0  0
  2  3  1  0  0  0  0
  3  4  1  0  0  0  0
  4  5  1  0  0  0  0
  5  6  1  0  0  0  0
  6  7  1  0  0  0  0
  7  8  1  0  0  0  0
  8  9  1  0  0  0  0
  9 10  1  0  0  0  0
 10 11  1  0  0  0  0
 11 12  1  0  0  0  0
 12 13  1  0  0  0  0
 13 14  1  0  0  0  0
 14 15  1  0  0  0  0
 15 16  1  0  0  0  0
 16 17  2  0  0  0  0
 16 18  1  0  0  0  0
 18 19  1  0  0  0  0
 19 20  1  0  0  0  0
 20 21  1  0  0  0  0
 21 22  1  0  0  0  0
 22 23  1  0  0  0  0
 23 24  1  0  0  0  0
 24 25  1  0  0  0  0
 25 26  1  0  0  0  0
 26 27  1  0  0  0  0
 27 28  1  0  0  0  0
 28 29  1  0  0  0  0
 29 30  1  0  0  0  0
 30 31  1  0  0  0  0
 31 32  1  0  0  0  0
 32 33  1  0  0  0  0
 33 34  1  0  0  0  0
 34 35  1  0  0  0  0
 34 36  1  0  0  0  0
M  END
> <RowID>
1771

> <Original_SMILES>
CCCCCCCCCCCCCCCC(=O)OCCCCCCCCCCCCCCCC(C)C

> <Canonical_QSARr>
CCCCCCCCCCCCCCCC(=O)OCCCCCCCCCCCCCCCC(C)C

> <InChI_Code_QSARr>
InChI=1S/C34H68O2/c1-4-5-6-7-8-9-10-12-16-19-22-25-28-31-34(35)36-32-29-26-23-20-17-14-11-13-15-18-21-24-27-30-33(2)3/h33H,4-32H2,1-3H3

> <InChI Key_QSARr>
SAMYFBLRCRWESN-UHFFFAOYSA-N

> <Salt_Solvent>


> <Salt_Solvent_ID>
0

> <Number of connected components>
1

$$$$
Molecule_1772
  Mrv2316 01072400032D          

 11 12  0  0  0  0            999 V2000
    0.6255    0.9669    0.0000 C   0  0  0  0  0  0  0  0  0  0  0  0
    1.2680    0.1194    0.0000 C   0  0  0  0  0  0  0  0  0  0  0  0
    0.6056   -0.7463    0.0000 C   0  0  0  0  0  0  0  0  0  0  0  0
    1.0617    0.9444    0.0000 C   0  0  0  0  0  0  0  0  0  0  0  0
    0.3473    0.5319    0.0000 C   0  0  0  0  0  0  0  0  0  0  0  0
    0.3473   -0.2931    0.0000 C   0  0  0  0  0  0  0  0  0  0  0  0
   -0.4938   -0.5427    0.0000 O   0  0  0  0  0  0  0  0  0  0  0  0
    1.0617   -0.7056    0.0000 C   0  0  0  0  0  0  0  0  0  0  0  0
    1.2513   -1.5661    0.0000 C   0  0  0  0  0  0  0  0  0  0  0  0
    1.7762   -0.2931    0.0000 C   0  0  0  0  0  0  0  0  0  0  0  0
    1.7762    0.5319    0.0000 C   0  0  0  0  0  0  0  0  0  0  0  0
  1  2  1  0  0  0  0
  2  3  1  0  0  0  0
  4  2  1  0  0  0  0
  4  5  1  0  0  0  0
  5  6  1  0  0  0  0
  6  7  1  0  0  0  0
  6  8  1  0  0  0  0
  2  8  1  0  0  0  0
  8  9  1  0  0  0  0
  8 10  1  0  0  0  0
 10 11  1  0  0  0  0
 11  4  1  0  0  0  0
M  END
> <RowID>
1772

> <Original_SMILES>
CC1(C)C2CC(O)C1(C)CC2

> <Canonical_QSARr>
CC1(C)C2CC(O)C1(C)CC2

> <InChI_Code_QSARr>
InChI=1S/C10H18O/c1-9(2)7-4-5-10(9,3)8(11)6-7/h7-8,11H,4-6H2,1-3H3

> <InChI Key_QSARr>
DTGKSKDOIYIVQL-UHFFFAOYSA-N

> <Salt_Solvent>


> <Salt_Solvent_ID>
0

> <Number of connected components>
1

$$$$
Molecule_1773
  Mrv2316 01072400032D          

  3  2  0  0  0  0            999 V2000
    1.2375   -0.7145    0.0000 C   0  0  0  0  0  0  0  0  0  0  0  0
    1.9520   -1.1270    0.0000 C   0  0  0  0  0  0  0  0  0  0  0  0
    2.6664   -0.7145    0.0000 Cl  0  0  0  0  0  0  0  0  0  0  0  0
  1  2  1  0  0  0  0
  2  3  1  0  0  0  0
M  END
> <RowID>
1773

> <Original_SMILES>
CCCl

> <Canonical_QSARr>
CCCl

> <InChI_Code_QSARr>
InChI=1S/C2H5Cl/c1-2-3/h2H2,1H3

> <InChI Key_QSARr>
HRYZWHHZPQKTII-UHFFFAOYSA-N

> <Salt_Solvent>


> <Salt_Solvent_ID>
0

> <Number of connected components>
1

$$$$
Molecule_1774
  Mrv2316 01072400032D          

 33 33  0  0  0  0            999 V2000
    2.1434   -7.3625    0.0000 C   0  0  0  0  0  0  0  0  0  0  0  0
    2.8579   -6.9500    0.0000 C   0  0  0  0  0  0  0  0  0  0  0  0
    2.8579   -6.1250    0.0000 C   0  0  0  0  0  0  0  0  0  0  0  0
    3.5724   -7.3625    0.0000 C   0  0  0  0  0  0  0  0  0  0  0  0
    3.5724   -8.1875    0.0000 C   0  0  0  0  0  0  0  0  0  0  0  0
    4.2868   -6.9500    0.0000 C   0  0  0  0  0  0  0  0  0  0  0  0
    4.2868   -6.1250    0.0000 C   0  0  0  0  0  0  0  0  0  0  0  0
    5.0013   -7.3625    0.0000 C   0  0  0  0  0  0  0  0  0  0  0  0
    5.0013   -8.1875    0.0000 C   0  0  0  0  0  0  0  0  0  0  0  0
    5.7158   -6.9500    0.0000 C   0  0  0  0  0  0  0  0  0  0  0  0
    5.7158   -6.1250    0.0000 C   0  0  0  0  0  0  0  0  0  0  0  0
    6.4302   -7.3625    0.0000 C   0  0  0  0  0  0  0  0  0  0  0  0
    6.4302   -8.1875    0.0000 C   0  0  0  0  0  0  0  0  0  0  0  0
    7.1447   -6.9500    0.0000 O   0  0  0  0  0  0  0  0  0  0  0  0
    7.8592   -7.3625    0.0000 C   0  0  0  0  0  0  0  0  0  0  0  0
    7.8592   -8.1875    0.0000 O   0  0  0  0  0  0  0  0  0  0  0  0
    8.5737   -6.9500    0.0000 C   0  0  0  0  0  0  0  0  0  0  0  0
    9.2881   -7.3625    0.0000 C   0  0  0  0  0  0  0  0  0  0  0  0
   10.0026   -6.9500    0.0000 C   0  0  0  0  0  0  0  0  0  0  0  0
   10.7171   -7.3625    0.0000 C   0  0  0  0  0  0  0  0  0  0  0  0
   11.4315   -6.9500    0.0000 C   0  0  0  0  0  0  0  0  0  0  0  0
   12.1460   -7.3625    0.0000 C   0  0  0  0  0  0  0  0  0  0  0  0
   12.8605   -7.7750    0.0000 C   0  0  0  0  0  0  0  0  0  0  0  0
   11.7335   -8.0770    0.0000 C   0  0  0  0  0  0  0  0  0  0  0  0
   12.5585   -6.6480    0.0000 C   0  0  0  0  0  0  0  0  0  0  0  0
   11.4315   -6.1250    0.0000 C   0  0  0  0  0  0  0  0  0  0  0  0
   12.1460   -5.7125    0.0000 O   0  0  0  0  0  0  0  0  0  0  0  0
   10.7171   -5.7125    0.0000 C   0  0  0  0  0  0  0  0  0  0  0  0
   10.7171   -4.8875    0.0000 C   0  0  0  0  0  0  0  0  0  0  0  0
   10.7171   -4.0625    0.0000 C   0  0  0  0  0  0  0  0  0  0  0  0
    9.8921   -4.8875    0.0000 C   0  0  0  0  0  0  0  0  0  0  0  0
   11.5421   -4.8875    0.0000 C   0  0  0  0  0  0  0  0  0  0  0  0
   10.0026   -6.1250    0.0000 C   0  0  0  0  0  0  0  0  0  0  0  0
  1  2  1  0  0  0  0
  2  3  1  0  0  0  0
  2  4  1  0  0  0  0
  4  5  1  0  0  0  0
  4  6  1  0  0  0  0
  6  7  1  0  0  0  0
  6  8  1  0  0  0  0
  8  9  1  0  0  0  0
  8 10  1  0  0  0  0
 10 11  1  0  0  0  0
 10 12  1  0  0  0  0
 12 13  1  0  0  0  0
 12 14  1  0  0  0  0
 14 15  1  0  0  0  0
 15 16  2  0  0  0  0
 15 17  1  0  0  0  0
 17 18  1  0  0  0  0
 18 19  1  0  0  0  0
 20 19  1  0  0  0  0
 21 20  2  0  0  0  0
 21 22  1  0  0  0  0
 22 23  1  0  0  0  0
 22 24  1  0  0  0  0
 22 25  1  0  0  0  0
 26 21  1  0  0  0  0
 26 27  1  0  0  0  0
 28 26  2  0  0  0  0
 28 29  1  0  0  0  0
 29 30  1  0  0  0  0
 29 31  1  0  0  0  0
 29 32  1  0  0  0  0
 33 28  1  0  0  0  0
 19 33  2  0  0  0  0
M  END
> <RowID>
1774

> <Original_SMILES>
CC(C)C(C)C(C)C(C)C(C)C(C)OC(=O)CCC1C=C(C(O)=C(C=1)C(C)(C)C)C(C)(C)C

> <Canonical_QSARr>
CC(C)C(C)C(C)C(C)C(C)C(C)OC(=O)CCC1C=C(C(O)=C(C=1)C(C)(C)C)C(C)(C)C

> <InChI_Code_QSARr>
InChI=1S/C30H52O3/c1-18(2)19(3)20(4)21(5)22(6)23(7)33-27(31)15-14-24-16-25(29(8,9)10)28(32)26(17-24)30(11,12)13/h16-23,32H,14-15H2,1-13H3

> <InChI Key_QSARr>
XSCAIZHLESBRAF-UHFFFAOYSA-N

> <Salt_Solvent>


> <Salt_Solvent_ID>
0

> <Number of connected components>
1

$$$$
Molecule_1776
  Mrv2316 01072400032D          

 77 76  0  0  0  0            999 V2000
    2.1434   -4.3164    0.0000 C   0  0  0  0  0  0  0  0  0  0  0  0
    2.9684   -4.3164    0.0000 C   0  0  0  0  0  0  0  0  0  0  0  0
    3.3809   -5.0309    0.0000 C   0  0  0  0  0  0  0  0  0  0  0  0
    4.2059   -5.0309    0.0000 C   0  0  0  0  0  0  0  0  0  0  0  0
    4.6184   -5.7454    0.0000 C   0  0  0  0  0  0  0  0  0  0  0  0
    5.4434   -5.7454    0.0000 C   0  0  0  0  0  0  0  0  0  0  0  0
    5.8559   -6.4598    0.0000 C   0  0  0  0  0  0  0  0  0  0  0  0
    6.6809   -6.4598    0.0000 C   0  0  0  0  0  0  0  0  0  0  0  0
    7.0934   -7.1743    0.0000 C   0  0  0  0  0  0  0  0  0  0  0  0
    6.6809   -7.8888    0.0000 C   0  0  0  0  0  0  0  0  0  0  0  0
    5.8559   -7.8888    0.0000 C   0  0  0  0  0  0  0  0  0  0  0  0
    5.4434   -8.6032    0.0000 C   0  0  0  0  0  0  0  0  0  0  0  0
    4.6184   -8.6032    0.0000 C   0  0  0  0  0  0  0  0  0  0  0  0
    4.2059   -9.3177    0.0000 C   0  0  0  0  0  0  0  0  0  0  0  0
    3.3809   -9.3177    0.0000 C   0  0  0  0  0  0  0  0  0  0  0  0
    7.9184   -7.1743    0.0000 C   0  0  0  0  0  0  0  0  0  0  0  0
    8.3309   -7.8888    0.0000 O   0  0  0  0  0  0  0  0  0  0  0  0
    8.3309   -6.4598    0.0000 O   0  0  0  0  0  0  0  0  0  0  0  0
    9.1559   -6.4598    0.0000 C   0  0  0  0  0  0  0  0  0  0  0  0
    9.5684   -7.1743    0.0000 C   0  0  0  0  0  0  0  0  0  0  0  0
    9.9809   -7.8888    0.0000 C   0  0  0  0  0  0  0  0  0  0  0  0
   10.8059   -7.8888    0.0000 O   0  0  0  0  0  0  0  0  0  0  0  0
   11.2184   -8.6032    0.0000 C   0  0  0  0  0  0  0  0  0  0  0  0
   10.8059   -9.3177    0.0000 O   0  0  0  0  0  0  0  0  0  0  0  0
   12.0434   -8.6032    0.0000 C   0  0  0  0  0  0  0  0  0  0  0  0
   12.4559   -7.8888    0.0000 C   0  0  0  0  0  0  0  0  0  0  0  0
   13.2809   -7.8888    0.0000 C   0  0  0  0  0  0  0  0  0  0  0  0
   13.6934   -7.1743    0.0000 C   0  0  0  0  0  0  0  0  0  0  0  0
   14.5184   -7.1743    0.0000 C   0  0  0  0  0  0  0  0  0  0  0  0
   14.9309   -6.4598    0.0000 C   0  0  0  0  0  0  0  0  0  0  0  0
   15.7559   -6.4598    0.0000 C   0  0  0  0  0  0  0  0  0  0  0  0
   12.4559   -9.3177    0.0000 C   0  0  0  0  0  0  0  0  0  0  0  0
   13.2809   -9.3177    0.0000 C   0  0  0  0  0  0  0  0  0  0  0  0
   13.6934  -10.0322    0.0000 C   0  0  0  0  0  0  0  0  0  0  0  0
   14.5184  -10.0322    0.0000 C   0  0  0  0  0  0  0  0  0  0  0  0
   14.9309  -10.7467    0.0000 C   0  0  0  0  0  0  0  0  0  0  0  0
   15.7559  -10.7467    0.0000 C   0  0  0  0  0  0  0  0  0  0  0  0
   16.1684  -11.4611    0.0000 C   0  0  0  0  0  0  0  0  0  0  0  0
   16.9934  -11.4611    0.0000 C   0  0  0  0  0  0  0  0  0  0  0  0
    8.8539   -7.5868    0.0000 C   0  0  0  0  0  0  0  0  0  0  0  0
    8.8539   -8.4118    0.0000 O   0  0  0  0  0  0  0  0  0  0  0  0
    8.1395   -8.8243    0.0000 C   0  0  0  0  0  0  0  0  0  0  0  0
    7.4250   -8.4118    0.0000 O   0  0  0  0  0  0  0  0  0  0  0  0
    8.1395   -9.6493    0.0000 C   0  0  0  0  0  0  0  0  0  0  0  0
    7.4250  -10.0618    0.0000 C   0  0  0  0  0  0  0  0  0  0  0  0
    7.4250  -10.8868    0.0000 C   0  0  0  0  0  0  0  0  0  0  0  0
    6.7105  -11.2993    0.0000 C   0  0  0  0  0  0  0  0  0  0  0  0
    6.7105  -12.1243    0.0000 C   0  0  0  0  0  0  0  0  0  0  0  0
    5.9961  -12.5368    0.0000 C   0  0  0  0  0  0  0  0  0  0  0  0
    5.9961  -13.3618    0.0000 C   0  0  0  0  0  0  0  0  0  0  0  0
    8.8539  -10.0618    0.0000 C   0  0  0  0  0  0  0  0  0  0  0  0
    8.8539  -10.8868    0.0000 C   0  0  0  0  0  0  0  0  0  0  0  0
    9.5684  -11.2993    0.0000 C   0  0  0  0  0  0  0  0  0  0  0  0
    9.5684  -12.1243    0.0000 C   0  0  0  0  0  0  0  0  0  0  0  0
   10.2829  -12.5368    0.0000 C   0  0  0  0  0  0  0  0  0  0  0  0
   10.2829  -13.3618    0.0000 C   0  0  0  0  0  0  0  0  0  0  0  0
   10.9974  -13.7743    0.0000 C   0  0  0  0  0  0  0  0  0  0  0  0
   10.9974  -14.5993    0.0000 C   0  0  0  0  0  0  0  0  0  0  0  0
   10.2829   -6.7618    0.0000 C   0  0  0  0  0  0  0  0  0  0  0  0
   10.2829   -5.9368    0.0000 O   0  0  0  0  0  0  0  0  0  0  0  0
   10.9974   -5.5243    0.0000 C   0  0  0  0  0  0  0  0  0  0  0  0
   11.7118   -5.9368    0.0000 O   0  0  0  0  0  0  0  0  0  0  0  0
   10.9974   -4.6993    0.0000 C   0  0  0  0  0  0  0  0  0  0  0  0
   10.2829   -4.2868    0.0000 C   0  0  0  0  0  0  0  0  0  0  0  0
    9.5684   -4.6993    0.0000 C   0  0  0  0  0  0  0  0  0  0  0  0
    8.8539   -4.2868    0.0000 C   0  0  0  0  0  0  0  0  0  0  0  0
    8.1395   -4.6993    0.0000 C   0  0  0  0  0  0  0  0  0  0  0  0
    7.4250   -4.2868    0.0000 C   0  0  0  0  0  0  0  0  0  0  0  0
    6.7105   -4.6993    0.0000 C   0  0  0  0  0  0  0  0  0  0  0  0
   11.7118   -4.2868    0.0000 C   0  0  0  0  0  0  0  0  0  0  0  0
   12.4263   -4.6993    0.0000 C   0  0  0  0  0  0  0  0  0  0  0  0
   13.1408   -4.2868    0.0000 C   0  0  0  0  0  0  0  0  0  0  0  0
   13.8552   -4.6993    0.0000 C   0  0  0  0  0  0  0  0  0  0  0  0
   14.5697   -4.2868    0.0000 C   0  0  0  0  0  0  0  0  0  0  0  0
   15.2842   -4.6993    0.0000 C   0  0  0  0  0  0  0  0  0  0  0  0
   15.9987   -4.2868    0.0000 C   0  0  0  0  0  0  0  0  0  0  0  0
   16.7131   -4.6993    0.0000 C   0  0  0  0  0  0  0  0  0  0  0  0
  1  2  1  0  0  0  0
  2  3  1  0  0  0  0
  3  4  1  0  0  0  0
  4  5  1  0  0  0  0
  5  6  1  0  0  0  0
  6  7  1  0  0  0  0
  7  8  1  0  0  0  0
  8  9  1  0  0  0  0
  9 10  1  0  0  0  0
 10 11  1  0  0  0  0
 11 12  1  0  0  0  0
 12 13  1  0  0  0  0
 13 14  1  0  0  0  0
 14 15  1  0  0  0  0
  9 16  1  0  0  0  0
 16 17  2  0  0  0  0
 16 18  1  0  0  0  0
 18 19  1  0  0  0  0
 19 20  1  0  0  0  0
 20 21  1  0  0  0  0
 21 22  1  0  0  0  0
 22 23  1  0  0  0  0
 23 24  2  0  0  0  0
 23 25  1  0  0  0  0
 25 26  1  0  0  0  0
 26 27  1  0  0  0  0
 27 28  1  0  0  0  0
 28 29  1  0  0  0  0
 29 30  1  0  0  0  0
 30 31  1  0  0  0  0
 25 32  1  0  0  0  0
 32 33  1  0  0  0  0
 33 34  1  0  0  0  0
 34 35  1  0  0  0  0
 35 36  1  0  0  0  0
 36 37  1  0  0  0  0
 37 38  1  0  0  0  0
 38 39  1  0  0  0  0
 20 40  1  0  0  0  0
 40 41  1  0  0  0  0
 41 42  1  0  0  0  0
 42 43  2  0  0  0  0
 42 44  1  0  0  0  0
 44 45  1  0  0  0  0
 45 46  1  0  0  0  0
 46 47  1  0  0  0  0
 47 48  1  0  0  0  0
 48 49  1  0  0  0  0
 49 50  1  0  0  0  0
 44 51  1  0  0  0  0
 51 52  1  0  0  0  0
 52 53  1  0  0  0  0
 53 54  1  0  0  0  0
 54 55  1  0  0  0  0
 55 56  1  0  0  0  0
 56 57  1  0  0  0  0
 57 58  1  0  0  0  0
 20 59  1  0  0  0  0
 59 60  1  0  0  0  0
 60 61  1  0  0  0  0
 61 62  2  0  0  0  0
 61 63  1  0  0  0  0
 63 64  1  0  0  0  0
 64 65  1  0  0  0  0
 65 66  1  0  0  0  0
 66 67  1  0  0  0  0
 67 68  1  0  0  0  0
 68 69  1  0  0  0  0
 63 70  1  0  0  0  0
 70 71  1  0  0  0  0
 71 72  1  0  0  0  0
 72 73  1  0  0  0  0
 73 74  1  0  0  0  0
 74 75  1  0  0  0  0
 75 76  1  0  0  0  0
 76 77  1  0  0  0  0
M  END
> <RowID>
1776

> <Original_SMILES>
CCCCCCCCC(CCCCCC)C(=O)OCC(COC(=O)C(CCCCCC)CCCCCCCC)(COC(=O)C(CCCCCC)CCCCCCCC)COC(=O)C(CCCCCC)CCCCCCCC

> <Canonical_QSARr>
CCCCCCCCC(CCCCCC)C(=O)OCC(COC(=O)C(CCCCCC)CCCCCCCC)(COC(=O)C(CCCCCC)CCCCCCCC)COC(=O)C(CCCCCC)CCCCCCCC

> <InChI_Code_QSARr>
InChI=1S/C69H132O8/c1-9-17-25-33-37-45-53-61(49-41-29-21-13-5)65(70)74-57-69(58-75-66(71)62(50-42-30-22-14-6)54-46-38-34-26-18-10-2,59-76-67(72)63(51-43-31-23-15-7)55-47-39-35-27-19-11-3)60-77-68(73)64(52-44-32-24-16-8)56-48-40-36-28-20-12-4/h61-64H,9-60H2,1-8H3

> <InChI Key_QSARr>
MQKQEJQNRSFRLA-UHFFFAOYSA-N

> <Salt_Solvent>


> <Salt_Solvent_ID>
0

> <Number of connected components>
1

$$$$
Molecule_1777
  Mrv2316 01072400032D          

 22 24  0  0  0  0            999 V2000
   -0.7145    1.2375    0.0000 C   0  0  0  0  0  0  0  0  0  0  0  0
   -1.4289    0.8250    0.0000 C   0  0  0  0  0  0  0  0  0  0  0  0
   -2.1434    1.2375    0.0000 C   0  0  0  0  0  0  0  0  0  0  0  0
   -2.8579    0.8250    0.0000 C   0  0  0  0  0  0  0  0  0  0  0  0
   -2.8579   -0.0000    0.0000 C   0  0  0  0  0  0  0  0  0  0  0  0
   -3.5723   -0.4125    0.0000 Cl  0  0  0  0  0  0  0  0  0  0  0  0
   -2.1434   -0.4125    0.0000 C   0  0  0  0  0  0  0  0  0  0  0  0
   -1.4289   -0.0000    0.0000 C   0  0  0  0  0  0  0  0  0  0  0  0
   -0.7145   -0.4125    0.0000 N   0  0  0  0  0  0  0  0  0  0  0  0
    0.0000    0.0000    0.0000 C   0  0  0  0  0  0  0  0  0  0  0  0
    0.0000    0.8250    0.0000 O   0  0  0  0  0  0  0  0  0  0  0  0
    0.7145   -0.4125    0.0000 C   0  0  0  0  0  0  0  0  0  0  0  0
    1.4289    0.0000    0.0000 C   0  0  0  0  0  0  0  0  0  0  0  0
    2.1434   -0.4125    0.0000 C   0  0  0  0  0  0  0  0  0  0  0  0
    2.8579    0.0000    0.0000 C   0  0  0  0  0  0  0  0  0  0  0  0
    3.5724   -0.4125    0.0000 C   0  0  0  0  0  0  0  0  0  0  0  0
    3.5724   -1.2375    0.0000 C   0  0  0  0  0  0  0  0  0  0  0  0
    2.8579   -1.6500    0.0000 C   0  0  0  0  0  0  0  0  0  0  0  0
    2.1434   -1.2375    0.0000 C   0  0  0  0  0  0  0  0  0  0  0  0
    1.4289   -1.6500    0.0000 C   0  0  0  0  0  0  0  0  0  0  0  0
    0.7145   -1.2375    0.0000 C   0  0  0  0  0  0  0  0  0  0  0  0
    0.0000   -1.6500    0.0000 O   0  0  0  0  0  0  0  0  0  0  0  0
  1  2  1  0  0  0  0
  3  2  1  0  0  0  0
  4  3  2  0  0  0  0
  5  4  1  0  0  0  0
  5  6  1  0  0  0  0
  7  5  2  0  0  0  0
  8  7  1  0  0  0  0
  2  8  2  0  0  0  0
  8  9  1  0  0  0  0
  9 10  1  0  0  0  0
 10 11  2  0  0  0  0
 10 12  1  0  0  0  0
 13 12  1  0  0  0  0
 14 13  2  0  0  0  0
 14 15  1  0  0  0  0
 15 16  2  0  0  0  0
 16 17  1  0  0  0  0
 17 18  2  0  0  0  0
 18 19  1  0  0  0  0
 19 14  1  0  0  0  0
 20 19  2  0  0  0  0
 21 20  1  0  0  0  0
 12 21  2  0  0  0  0
 21 22  1  0  0  0  0
M  END
> <RowID>
1777

> <Original_SMILES>
CC1C=CC(Cl)=CC=1NC(=O)C1C=C2C=CC=CC2=CC=1O

> <Canonical_QSARr>
CC1C=CC(Cl)=CC=1NC(=O)C1C=C2C=CC=CC2=CC=1O

> <InChI_Code_QSARr>
InChI=1S/C18H14ClNO2/c1-11-6-7-14(19)10-16(11)20-18(22)15-8-12-4-2-3-5-13(12)9-17(15)21/h2-10,21H,1H3,(H,20,22)

> <InChI Key_QSARr>
XZOACPDZZYNJER-UHFFFAOYSA-N

> <Salt_Solvent>


> <Salt_Solvent_ID>
0

> <Number of connected components>
1

$$$$
Molecule_1778
  Mrv2316 01072400032D          

  8  7  0  0  0  0            999 V2000
   -0.1915    0.7145    0.0000 C   0  0  0  0  0  0  0  0  0  0  0  0
    0.5230    1.1270    0.0000 C   0  0  0  0  0  0  0  0  0  0  0  0
    0.5230    1.9520    0.0000 C   0  0  0  0  0  0  0  0  0  0  0  0
    1.2375    0.7145    0.0000 C   0  0  0  0  0  0  0  0  0  0  0  0
    1.9520    1.1270    0.0000 O   0  0  0  0  0  0  0  0  0  0  0  0
    2.6664    0.7145    0.0000 C   0  0  0  0  0  0  0  0  0  0  0  0
    3.3809    1.1270    0.0000 C   0  0  0  0  0  0  0  0  0  0  0  0
    2.6664   -0.1105    0.0000 O   0  0  0  0  0  0  0  0  0  0  0  0
  1  2  1  0  0  0  0
  2  3  1  0  0  0  0
  2  4  1  0  0  0  0
  4  5  1  0  0  0  0
  5  6  1  0  0  0  0
  6  7  1  0  0  0  0
  6  8  2  0  0  0  0
M  END
> <RowID>
1778

> <Original_SMILES>
CC(C)COC(C)=O

> <Canonical_QSARr>
CC(C)COC(C)=O

> <InChI_Code_QSARr>
InChI=1S/C6H12O2/c1-5(2)4-8-6(3)7/h5H,4H2,1-3H3

> <InChI Key_QSARr>
GJRQTCIYDGXPES-UHFFFAOYSA-N

> <Salt_Solvent>


> <Salt_Solvent_ID>
0

> <Number of connected components>
1

$$$$
Molecule_1779
  Mrv2316 01072400032D          

  6  5  0  0  0  0            999 V2000
    1.2375    0.7145    0.0000 C   0  0  0  0  0  0  0  0  0  0  0  0
    0.8250    1.4289    0.0000 O   0  0  0  0  0  0  0  0  0  0  0  0
    2.0625    0.7145    0.0000 O   0  0  0  0  0  0  0  0  0  0  0  0
    0.8250   -0.0000    0.0000 C   0  0  0  0  0  0  0  0  0  0  0  0
    1.2375   -0.7145    0.0000 O   0  0  0  0  0  0  0  0  0  0  0  0
    0.0000   -0.0000    0.0000 O   0  0  0  0  0  0  0  0  0  0  0  0
  1  2  1  0  0  0  0
  1  3  2  0  0  0  0
  1  4  1  0  0  0  0
  4  5  1  0  0  0  0
  4  6  2  0  0  0  0
M  END
> <RowID>
1779

> <Original_SMILES>
[Cr+3].[Cr+3].[O-]C(=O)C([O-])=O.[O-]C(=O)C([O-])=O.[O-]C(=O)C([O-])=O

> <Canonical_QSARr>
OC(=O)C(O)=O

> <InChI_Code_QSARr>
InChI=1S/C2H2O4/c3-1(4)2(5)6/h(H,3,4)(H,5,6)

> <InChI Key_QSARr>
MUBZPKHOEPUJKR-UHFFFAOYSA-N

> <Salt_Solvent>
[Cr+3]

> <Salt_Solvent_ID>
240

> <Number of connected components>
5

$$$$
Molecule_1780
  Mrv2316 01072400032D          

 20 19  0  0  0  0            999 V2000
    5.0627    1.0005    0.0000 O   0  0  0  0  0  0  0  0  0  0  0  0
    5.8729    1.1564    0.0000 C   0  0  0  0  0  0  0  0  0  0  0  0
    6.1429    1.9360    0.0000 O   0  0  0  0  0  0  0  0  0  0  0  0
    6.4129    0.5328    0.0000 C   0  0  0  0  0  0  0  0  0  0  0  0
    6.1429   -0.2467    0.0000 N   0  0  0  0  0  0  0  0  0  0  0  0
    5.3328   -0.4027    0.0000 C   0  0  0  0  0  0  0  0  0  0  0  0
    5.0627   -1.1822    0.0000 C   0  0  0  0  0  0  0  0  0  0  0  0
    4.2526   -1.3381    0.0000 N   0  0  0  0  0  0  0  0  0  0  0  0
    3.9825   -2.1177    0.0000 C   0  0  0  0  0  0  0  0  0  0  0  0
    4.5226   -2.7413    0.0000 C   0  0  0  0  0  0  0  0  0  0  0  0
    5.3328   -2.5854    0.0000 O   0  0  0  0  0  0  0  0  0  0  0  0
    4.2526   -3.5209    0.0000 O   0  0  0  0  0  0  0  0  0  0  0  0
    3.7125   -0.7145    0.0000 C   0  0  0  0  0  0  0  0  0  0  0  0
    2.9024   -0.8704    0.0000 C   0  0  0  0  0  0  0  0  0  0  0  0
    2.3623   -0.2467    0.0000 O   0  0  0  0  0  0  0  0  0  0  0  0
    2.6323   -1.6499    0.0000 O   0  0  0  0  0  0  0  0  0  0  0  0
    6.6830   -0.8704    0.0000 C   0  0  0  0  0  0  0  0  0  0  0  0
    7.4931   -0.7145    0.0000 C   0  0  0  0  0  0  0  0  0  0  0  0
    7.7632    0.0651    0.0000 O   0  0  0  0  0  0  0  0  0  0  0  0
    8.0332   -1.3381    0.0000 O   0  0  0  0  0  0  0  0  0  0  0  0
  1  2  1  0  0  0  0
  2  3  2  0  0  0  0
  2  4  1  0  0  0  0
  4  5  1  0  0  0  0
  5  6  1  0  0  0  0
  6  7  1  0  0  0  0
  7  8  1  0  0  0  0
  8  9  1  0  0  0  0
  9 10  1  0  0  0  0
 10 11  1  0  0  0  0
 10 12  2  0  0  0  0
  8 13  1  0  0  0  0
 13 14  1  0  0  0  0
 14 15  2  0  0  0  0
 14 16  1  0  0  0  0
  5 17  1  0  0  0  0
 17 18  1  0  0  0  0
 18 19  2  0  0  0  0
 18 20  1  0  0  0  0
M  END
> <RowID>
1780

> <Original_SMILES>
[K+].[K+].[O-]C(=O)CN(CC(O)=O)CCN(CC([O-])=O)CC(O)=O

> <Canonical_QSARr>
OC(=O)CN(CC(O)=O)CCN(CC(O)=O)CC(O)=O

> <InChI_Code_QSARr>
InChI=1S/C10H16N2O8/c13-7(14)3-11(4-8(15)16)1-2-12(5-9(17)18)6-10(19)20/h1-6H2,(H,13,14)(H,15,16)(H,17,18)(H,19,20)

> <InChI Key_QSARr>
KCXVZYZYPLLWCC-UHFFFAOYSA-N

> <Salt_Solvent>
[K+]

> <Salt_Solvent_ID>
190

> <Number of connected components>
3

$$$$
Molecule_1781
  Mrv2316 01072400032D          

 17 16  0  0  0  0            999 V2000
    6.7105    4.6993    0.0000 C   0  0  0  0  0  0  0  0  0  0  0  0
    7.4250    4.2868    0.0000 C   0  0  0  0  0  0  0  0  0  0  0  0
    8.1395    4.6993    0.0000 C   0  0  0  0  0  0  0  0  0  0  0  0
    8.8539    4.2868    0.0000 C   0  0  0  0  0  0  0  0  0  0  0  0
    9.5684    4.6993    0.0000 C   0  0  0  0  0  0  0  0  0  0  0  0
   10.2829    4.2868    0.0000 C   0  0  0  0  0  0  0  0  0  0  0  0
   10.9974    4.6993    0.0000 C   0  0  0  0  0  0  0  0  0  0  0  0
   11.7118    4.2868    0.0000 C   0  0  0  0  0  0  0  0  0  0  0  0
   12.4263    4.6993    0.0000 C   0  0  0  0  0  0  0  0  0  0  0  0
   13.1408    4.2868    0.0000 C   0  0  0  0  0  0  0  0  0  0  0  0
   13.8552    4.6993    0.0000 C   0  0  0  0  0  0  0  0  0  0  0  0
   14.5697    4.2868    0.0000 C   0  0  0  0  0  0  0  0  0  0  0  0
   14.5697    3.4618    0.0000 O   0  0  0  0  0  0  0  0  0  0  0  0
   15.2842    4.6993    0.0000 O   0  0  0  0  0  0  0  0  0  0  0  0
   15.9986    4.2868    0.0000 C   0  0  0  0  0  0  0  0  0  0  0  0
   16.7131    4.6993    0.0000 C   0  0  0  0  0  0  0  0  0  0  0  0
   15.9986    3.4618    0.0000 C   0  0  0  0  0  0  0  0  0  0  0  0
  1  2  1  0  0  0  0
  2  3  1  0  0  0  0
  3  4  1  0  0  0  0
  4  5  1  0  0  0  0
  5  6  1  0  0  0  0
  6  7  1  0  0  0  0
  7  8  1  0  0  0  0
  8  9  1  0  0  0  0
  9 10  1  0  0  0  0
 10 11  1  0  0  0  0
 11 12  1  0  0  0  0
 12 13  2  0  0  0  0
 12 14  1  0  0  0  0
 14 15  1  0  0  0  0
 15 16  1  0  0  0  0
 15 17  1  0  0  0  0
M  END
> <RowID>
1781

> <Original_SMILES>
CCCCCCCCCCCC(=O)OC(C)C

> <Canonical_QSARr>
CCCCCCCCCCCC(=O)OC(C)C

> <InChI_Code_QSARr>
InChI=1S/C15H30O2/c1-4-5-6-7-8-9-10-11-12-13-15(16)17-14(2)3/h14H,4-13H2,1-3H3

> <InChI Key_QSARr>
UJPPXNXOEVDSRW-UHFFFAOYSA-N

> <Salt_Solvent>


> <Salt_Solvent_ID>
0

> <Number of connected components>
1

$$$$
Molecule_1782
  Mrv2316 01072400032D          

 20 19  0  0  0  0            999 V2000
   -2.1434   -4.9204    0.0000 C   0  0  0  0  0  0  0  0  0  0  0  0
   -1.4289   -5.3329    0.0000 C   0  0  0  0  0  0  0  0  0  0  0  0
   -0.7145   -4.9204    0.0000 C   0  0  0  0  0  0  0  0  0  0  0  0
    0.0000   -5.3329    0.0000 C   0  0  0  0  0  0  0  0  0  0  0  0
    0.7145   -4.9204    0.0000 N   0  0  0  0  0  0  0  0  0  0  0  0
    0.7145   -4.0954    0.0000 C   0  0  0  0  0  0  0  0  0  0  0  0
    0.0000   -3.6829    0.0000 C   0  0  0  0  0  0  0  0  0  0  0  0
    0.0000   -2.8579    0.0000 C   0  0  0  0  0  0  0  0  0  0  0  0
   -0.7145   -2.4454    0.0000 C   0  0  0  0  0  0  0  0  0  0  0  0
    1.4289   -5.3329    0.0000 C   0  0  0  0  0  0  0  0  0  0  0  0
    1.4289   -6.1579    0.0000 O   0  0  0  0  0  0  0  0  0  0  0  0
    2.1434   -4.9204    0.0000 N   0  0  0  0  0  0  0  0  0  0  0  0
    2.8579   -5.3329    0.0000 C   0  0  0  0  0  0  0  0  0  0  0  0
    3.5724   -4.9204    0.0000 C   0  0  0  0  0  0  0  0  0  0  0  0
    4.2868   -5.3329    0.0000 C   0  0  0  0  0  0  0  0  0  0  0  0
    5.0013   -4.9204    0.0000 C   0  0  0  0  0  0  0  0  0  0  0  0
    2.1434   -4.0954    0.0000 C   0  0  0  0  0  0  0  0  0  0  0  0
    2.8579   -3.6829    0.0000 C   0  0  0  0  0  0  0  0  0  0  0  0
    2.8579   -2.8579    0.0000 C   0  0  0  0  0  0  0  0  0  0  0  0
    3.5724   -2.4454    0.0000 C   0  0  0  0  0  0  0  0  0  0  0  0
  1  2  1  0  0  0  0
  2  3  1  0  0  0  0
  3  4  1  0  0  0  0
  4  5  1  0  0  0  0
  5  6  1  0  0  0  0
  6  7  1  0  0  0  0
  7  8  1  0  0  0  0
  8  9  1  0  0  0  0
  5 10  1  0  0  0  0
 10 11  2  0  0  0  0
 10 12  1  0  0  0  0
 12 13  1  0  0  0  0
 13 14  1  0  0  0  0
 14 15  1  0  0  0  0
 15 16  1  0  0  0  0
 12 17  1  0  0  0  0
 17 18  1  0  0  0  0
 18 19  1  0  0  0  0
 19 20  1  0  0  0  0
M  END
> <RowID>
1782

> <Original_SMILES>
CCCCN(CCCC)C(=O)N(CCCC)CCCC

> <Canonical_QSARr>
CCCCN(CCCC)C(=O)N(CCCC)CCCC

> <InChI_Code_QSARr>
InChI=1S/C17H36N2O/c1-5-9-13-18(14-10-6-2)17(20)19(15-11-7-3)16-12-8-4/h5-16H2,1-4H3

> <InChI Key_QSARr>
SNDGLCYYBKJSOT-UHFFFAOYSA-N

> <Salt_Solvent>


> <Salt_Solvent_ID>
0

> <Number of connected components>
1

$$$$
Molecule_1783
  Mrv2316 01072400032D          

 10  9  0  0  0  0            999 V2000
    3.3809    0.3020    0.0000 C   0  0  0  0  0  0  0  0  0  0  0  0
    2.6664    0.7145    0.0000 C   0  0  0  0  0  0  0  0  0  0  0  0
    2.6664    1.5395    0.0000 C   0  0  0  0  0  0  0  0  0  0  0  0
    1.9520    0.3020    0.0000 C   0  0  0  0  0  0  0  0  0  0  0  0
    1.2375    0.7145    0.0000 Si  0  0  0  0  0  0  0  0  0  0  0  0
    1.6500    1.4290    0.0000 C   0  0  0  0  0  0  0  0  0  0  0  0
    0.5230    1.1270    0.0000 O   0  0  0  0  0  0  0  0  0  0  0  0
   -0.1914    0.7145    0.0000 C   0  0  0  0  0  0  0  0  0  0  0  0
    0.8250    0.0000    0.0000 O   0  0  0  0  0  0  0  0  0  0  0  0
   -0.0000    0.0000    0.0000 C   0  0  0  0  0  0  0  0  0  0  0  0
  1  2  1  0  0  0  0
  2  3  1  0  0  0  0
  2  4  1  0  0  0  0
  4  5  1  0  0  0  0
  5  6  1  0  0  0  0
  5  7  1  0  0  0  0
  7  8  1  0  0  0  0
  5  9  1  0  0  0  0
  9 10  1  0  0  0  0
M  END
> <RowID>
1783

> <Original_SMILES>
CC(C)C[Si](C)(OC)OC

> <Canonical_QSARr>
CC(C)C[Si](C)(OC)OC

> <InChI_Code_QSARr>
InChI=1S/C7H18O2Si/c1-7(2)6-10(5,8-3)9-4/h7H,6H2,1-5H3

> <InChI Key_QSARr>
JUESRADRPFMUCL-UHFFFAOYSA-N

> <Salt_Solvent>


> <Salt_Solvent_ID>
0

> <Number of connected components>
1

$$$$
Molecule_1784
  Mrv2316 01072400032D          

 25 24  0  0  0  0            999 V2000
   11.6605    7.5572    0.0000 C   0  0  0  0  0  0  0  0  0  0  0  0
   12.3750    7.1447    0.0000 C   0  0  0  0  0  0  0  0  0  0  0  0
   13.0895    7.5572    0.0000 C   0  0  0  0  0  0  0  0  0  0  0  0
   13.8039    7.1447    0.0000 C   0  0  0  0  0  0  0  0  0  0  0  0
   14.5184    7.5572    0.0000 C   0  0  0  0  0  0  0  0  0  0  0  0
   15.2329    7.1447    0.0000 C   0  0  0  0  0  0  0  0  0  0  0  0
   15.9473    7.5572    0.0000 C   0  0  0  0  0  0  0  0  0  0  0  0
   16.6618    7.1447    0.0000 C   0  0  0  0  0  0  0  0  0  0  0  0
   17.3763    7.5572    0.0000 C   0  0  0  0  0  0  0  0  0  0  0  0
   18.0907    7.1447    0.0000 C   0  0  0  0  0  0  0  0  0  0  0  0
   18.8052    7.5572    0.0000 C   0  0  0  0  0  0  0  0  0  0  0  0
   19.5197    7.1447    0.0000 C   0  0  0  0  0  0  0  0  0  0  0  0
   20.2342    7.5572    0.0000 C   0  0  0  0  0  0  0  0  0  0  0  0
   20.2342    8.3822    0.0000 C   0  0  0  0  0  0  0  0  0  0  0  0
   20.9486    8.7947    0.0000 O   0  0  0  0  0  0  0  0  0  0  0  0
   20.9486    7.1447    0.0000 C   0  0  0  0  0  0  0  0  0  0  0  0
   21.6631    7.5572    0.0000 C   0  0  0  0  0  0  0  0  0  0  0  0
   22.3776    7.1447    0.0000 C   0  0  0  0  0  0  0  0  0  0  0  0
   23.0920    7.5572    0.0000 C   0  0  0  0  0  0  0  0  0  0  0  0
   23.8065    7.1447    0.0000 C   0  0  0  0  0  0  0  0  0  0  0  0
   24.5210    7.5572    0.0000 C   0  0  0  0  0  0  0  0  0  0  0  0
   25.2355    7.1447    0.0000 C   0  0  0  0  0  0  0  0  0  0  0  0
   25.9499    7.5572    0.0000 C   0  0  0  0  0  0  0  0  0  0  0  0
   26.6644    7.1447    0.0000 C   0  0  0  0  0  0  0  0  0  0  0  0
   27.3789    7.5572    0.0000 C   0  0  0  0  0  0  0  0  0  0  0  0
  1  2  1  0  0  0  0
  2  3  1  0  0  0  0
  3  4  1  0  0  0  0
  4  5  1  0  0  0  0
  5  6  1  0  0  0  0
  6  7  1  0  0  0  0
  7  8  1  0  0  0  0
  8  9  1  0  0  0  0
  9 10  1  0  0  0  0
 10 11  1  0  0  0  0
 11 12  1  0  0  0  0
 12 13  1  0  0  0  0
 13 14  1  0  0  0  0
 14 15  1  0  0  0  0
 13 16  1  0  0  0  0
 16 17  1  0  0  0  0
 17 18  1  0  0  0  0
 18 19  1  0  0  0  0
 19 20  1  0  0  0  0
 20 21  1  0  0  0  0
 21 22  1  0  0  0  0
 22 23  1  0  0  0  0
 23 24  1  0  0  0  0
 24 25  1  0  0  0  0
M  END
> <RowID>
1784

> <Original_SMILES>
CCCCCCCCCCCCC(CO)CCCCCCCCCC

> <Canonical_QSARr>
CCCCCCCCCCCCC(CO)CCCCCCCCCC

> <InChI_Code_QSARr>
InChI=1S/C24H50O/c1-3-5-7-9-11-13-14-16-18-20-22-24(23-25)21-19-17-15-12-10-8-6-4-2/h24-25H,3-23H2,1-2H3

> <InChI Key_QSARr>
CAYHVMBQBLYQMT-UHFFFAOYSA-N

> <Salt_Solvent>


> <Salt_Solvent_ID>
0

> <Number of connected components>
1

$$$$
Molecule_1785
  Mrv2316 01072400032D          

 20 19  0  0  0  0            999 V2000
    9.1855    6.1283    0.0000 C   0  0  0  0  0  0  0  0  0  0  0  0
    9.9000    5.7158    0.0000 C   0  0  0  0  0  0  0  0  0  0  0  0
   10.6145    6.1283    0.0000 C   0  0  0  0  0  0  0  0  0  0  0  0
   11.3289    5.7158    0.0000 C   0  0  0  0  0  0  0  0  0  0  0  0
   12.0434    6.1283    0.0000 C   0  0  0  0  0  0  0  0  0  0  0  0
   12.7579    5.7158    0.0000 C   0  0  0  0  0  0  0  0  0  0  0  0
   13.4723    6.1283    0.0000 C   0  0  0  0  0  0  0  0  0  0  0  0
   14.1868    5.7158    0.0000 C   0  0  0  0  0  0  0  0  0  0  0  0
   14.9013    6.1283    0.0000 C   0  0  0  0  0  0  0  0  0  0  0  0
   15.6158    5.7158    0.0000 C   0  0  0  0  0  0  0  0  0  0  0  0
   16.3302    6.1283    0.0000 C   0  0  0  0  0  0  0  0  0  0  0  0
   17.0447    5.7158    0.0000 C   0  0  0  0  0  0  0  0  0  0  0  0
   17.7592    6.1283    0.0000 C   0  0  0  0  0  0  0  0  0  0  0  0
   18.4736    5.7158    0.0000 C   0  0  0  0  0  0  0  0  0  0  0  0
   19.1881    6.1283    0.0000 C   0  0  0  0  0  0  0  0  0  0  0  0
   19.9026    5.7158    0.0000 C   0  0  0  0  0  0  0  0  0  0  0  0
   20.6171    6.1283    0.0000 C   0  0  0  0  0  0  0  0  0  0  0  0
   21.3315    5.7158    0.0000 C   0  0  0  0  0  0  0  0  0  0  0  0
   22.0460    6.1283    0.0000 O   0  0  0  0  0  0  0  0  0  0  0  0
   21.3315    4.8908    0.0000 O   0  0  0  0  0  0  0  0  0  0  0  0
  1  2  1  0  0  0  0
  2  3  1  0  0  0  0
  3  4  1  0  0  0  0
  4  5  1  0  0  0  0
  5  6  1  0  0  0  0
  6  7  1  0  0  0  0
  7  8  1  0  0  0  0
  8  9  1  0  0  0  0
  9 10  1  0  0  0  0
 10 11  1  0  0  0  0
 11 12  1  0  0  0  0
 12 13  1  0  0  0  0
 13 14  1  0  0  0  0
 14 15  1  0  0  0  0
 15 16  1  0  0  0  0
 16 17  1  0  0  0  0
 17 18  1  0  0  0  0
 18 19  1  0  0  0  0
 18 20  2  0  0  0  0
M  END
> <RowID>
1785

> <Original_SMILES>
CCCCCCCCCCCCCCCCCC(O)=O

> <Canonical_QSARr>
CCCCCCCCCCCCCCCCCC(O)=O

> <InChI_Code_QSARr>
InChI=1S/C18H36O2/c1-2-3-4-5-6-7-8-9-10-11-12-13-14-15-16-17-18(19)20/h2-17H2,1H3,(H,19,20)

> <InChI Key_QSARr>
QIQXTHQIDYTFRH-UHFFFAOYSA-N

> <Salt_Solvent>


> <Salt_Solvent_ID>
0

> <Number of connected components>
1

$$$$
Molecule_1786
  Mrv2316 01072400032D          

 14 14  0  0  0  0            999 V2000
    1.6331    1.7679    0.0000 N   0  0  0  0  0  0  0  0  0  0  0  0
    0.9186    1.3554    0.0000 C   0  0  0  0  0  0  0  0  0  0  0  0
    0.2041    1.7679    0.0000 N   0  0  0  0  0  0  0  0  0  0  0  0
    0.2041    2.5929    0.0000 C   0  0  0  0  0  0  0  0  0  0  0  0
   -0.5103    1.3554    0.0000 C   0  0  0  0  0  0  0  0  0  0  0  0
   -1.2248    1.7679    0.0000 O   0  0  0  0  0  0  0  0  0  0  0  0
   -0.5103    0.5304    0.0000 N   0  0  0  0  0  0  0  0  0  0  0  0
   -1.2248    0.1179    0.0000 C   0  0  0  0  0  0  0  0  0  0  0  0
    0.2041    0.1179    0.0000 C   0  0  0  0  0  0  0  0  0  0  0  0
    0.2041   -0.7071    0.0000 O   0  0  0  0  0  0  0  0  0  0  0  0
    0.9186    0.5304    0.0000 C   0  0  0  0  0  0  0  0  0  0  0  0
    1.6331    0.1179    0.0000 N   0  0  0  0  0  0  0  0  0  0  0  0
    1.6331   -0.7071    0.0000 C   0  0  0  0  0  0  0  0  0  0  0  0
    2.3475   -1.1196    0.0000 O   0  0  0  0  0  0  0  0  0  0  0  0
  1  2  2  0  0  0  0
  3  2  1  0  0  0  0
  3  4  1  0  0  0  0
  5  3  1  0  0  0  0
  5  6  2  0  0  0  0
  7  5  1  0  0  0  0
  7  8  1  0  0  0  0
  9  7  1  0  0  0  0
  9 10  2  0  0  0  0
 11  9  1  0  0  0  0
  2 11  1  0  0  0  0
 11 12  1  0  0  0  0
 12 13  1  0  0  0  0
 13 14  2  0  0  0  0
M  END
> <RowID>
1786

> <Original_SMILES>
CN1C(=O)C(NC=O)=C(N)N(C)C1=O

> <Canonical_QSARr>
CN1C(=O)C(NC=O)C(=N)N(C)C1=O

> <InChI_Code_QSARr>
InChI=1S/C7H10N4O3/c1-10-5(8)4(9-3-12)6(13)11(2)7(10)14/h3-4,8H,1-2H3,(H,9,12)

> <InChI Key_QSARr>
MRYQKDNKMRKXJQ-UHFFFAOYSA-N

> <Salt_Solvent>


> <Salt_Solvent_ID>
0

> <Number of connected components>
1

$$$$
Molecule_1787
  Mrv2316 01072400032D          

 14 13  0  0  0  0            999 V2000
    5.4730    3.9849    0.0000 C   0  0  0  0  0  0  0  0  0  0  0  0
    6.1875    3.5724    0.0000 C   0  0  0  0  0  0  0  0  0  0  0  0
    6.9020    3.9849    0.0000 C   0  0  0  0  0  0  0  0  0  0  0  0
    7.6164    3.5724    0.0000 C   0  0  0  0  0  0  0  0  0  0  0  0
    8.3309    3.9849    0.0000 O   0  0  0  0  0  0  0  0  0  0  0  0
    9.0454    3.5724    0.0000 C   0  0  0  0  0  0  0  0  0  0  0  0
    9.7599    3.9849    0.0000 C   0  0  0  0  0  0  0  0  0  0  0  0
   10.4743    3.5724    0.0000 O   0  0  0  0  0  0  0  0  0  0  0  0
   11.1888    3.9849    0.0000 C   0  0  0  0  0  0  0  0  0  0  0  0
   11.9033    3.5724    0.0000 C   0  0  0  0  0  0  0  0  0  0  0  0
   12.6177    3.9849    0.0000 O   0  0  0  0  0  0  0  0  0  0  0  0
   13.3322    3.5724    0.0000 C   0  0  0  0  0  0  0  0  0  0  0  0
   14.0467    3.9849    0.0000 C   0  0  0  0  0  0  0  0  0  0  0  0
   13.3322    2.7474    0.0000 O   0  0  0  0  0  0  0  0  0  0  0  0
  1  2  1  0  0  0  0
  2  3  1  0  0  0  0
  3  4  1  0  0  0  0
  4  5  1  0  0  0  0
  5  6  1  0  0  0  0
  6  7  1  0  0  0  0
  7  8  1  0  0  0  0
  8  9  1  0  0  0  0
  9 10  1  0  0  0  0
 10 11  1  0  0  0  0
 11 12  1  0  0  0  0
 12 13  1  0  0  0  0
 12 14  2  0  0  0  0
M  END
> <RowID>
1787

> <Original_SMILES>
CCCCOCCOCCOC(C)=O

> <Canonical_QSARr>
CCCCOCCOCCOC(C)=O

> <InChI_Code_QSARr>
InChI=1S/C10H20O4/c1-3-4-5-12-6-7-13-8-9-14-10(2)11/h3-9H2,1-2H3

> <InChI Key_QSARr>
VXQBJTKSVGFQOL-UHFFFAOYSA-N

> <Salt_Solvent>


> <Salt_Solvent_ID>
0

> <Number of connected components>
1

$$$$
Molecule_1788
  Mrv2316 01072400032D          

  8  7  0  0  0  0            999 V2000
    1.6500    1.4290    0.0000 C   0  0  0  0  0  0  0  0  0  0  0  0
    1.2375    0.7145    0.0000 C   0  0  0  0  0  0  0  0  0  0  0  0
    0.5230    1.1270    0.0000 C   0  0  0  0  0  0  0  0  0  0  0  0
   -0.1914    0.7145    0.0000 O   0  0  0  0  0  0  0  0  0  0  0  0
    1.9520    0.3020    0.0000 C   0  0  0  0  0  0  0  0  0  0  0  0
    2.6664    0.7145    0.0000 O   0  0  0  0  0  0  0  0  0  0  0  0
    0.8250    0.0000    0.0000 C   0  0  0  0  0  0  0  0  0  0  0  0
    0.0000    0.0000    0.0000 O   0  0  0  0  0  0  0  0  0  0  0  0
  1  2  1  0  0  0  0
  2  3  1  0  0  0  0
  3  4  1  0  0  0  0
  2  5  1  0  0  0  0
  5  6  1  0  0  0  0
  2  7  1  0  0  0  0
  7  8  1  0  0  0  0
M  END
> <RowID>
1788

> <Original_SMILES>
CC(CO)(CO)CO

> <Canonical_QSARr>
CC(CO)(CO)CO

> <InChI_Code_QSARr>
InChI=1S/C5H12O3/c1-5(2-6,3-7)4-8/h6-8H,2-4H2,1H3

> <InChI Key_QSARr>
QXJQHYBHAIHNGG-UHFFFAOYSA-N

> <Salt_Solvent>


> <Salt_Solvent_ID>
0

> <Number of connected components>
1

$$$$
Molecule_1789
  Mrv2316 01072400032D          

  5  4  0  0  0  0            999 V2000
    0.8250   -0.8250    0.0000 C   0  0  0  0  0  0  0  0  0  0  0  0
    0.8250    0.0000    0.0000 C   0  0  0  0  0  0  0  0  0  0  0  0
    0.8250    0.8250    0.0000 F   0  0  0  0  0  0  0  0  0  0  0  0
    1.6500   -0.0000    0.0000 F   0  0  0  0  0  0  0  0  0  0  0  0
    0.0000    0.0000    0.0000 Cl  0  0  0  0  0  0  0  0  0  0  0  0
  1  2  1  0  0  0  0
  2  3  1  0  0  0  0
  2  4  1  0  0  0  0
  2  5  1  0  0  0  0
M  END
> <RowID>
1789

> <Original_SMILES>
CC(F)(F)Cl

> <Canonical_QSARr>
CC(F)(F)Cl

> <InChI_Code_QSARr>
InChI=1S/C2H3ClF2/c1-2(3,4)5/h1H3

> <InChI Key_QSARr>
BHNZEZWIUMJCGF-UHFFFAOYSA-N

> <Salt_Solvent>


> <Salt_Solvent_ID>
0

> <Number of connected components>
1

$$$$
Molecule_1791
  Mrv2316 01072400032D          

 21 20  0  0  0  0            999 V2000
    9.1855    6.1283    0.0000 C   0  0  0  0  0  0  0  0  0  0  0  0
    9.9000    5.7158    0.0000 C   0  0  0  0  0  0  0  0  0  0  0  0
   10.6145    6.1283    0.0000 C   0  0  0  0  0  0  0  0  0  0  0  0
   11.3289    5.7158    0.0000 C   0  0  0  0  0  0  0  0  0  0  0  0
   12.0434    6.1283    0.0000 C   0  0  0  0  0  0  0  0  0  0  0  0
   12.7579    5.7158    0.0000 C   0  0  0  0  0  0  0  0  0  0  0  0
   13.4724    6.1283    0.0000 C   0  0  0  0  0  0  0  0  0  0  0  0
   14.1868    5.7158    0.0000 C   0  0  0  0  0  0  0  0  0  0  0  0
   14.9013    6.1283    0.0000 C   0  0  0  0  0  0  0  0  0  0  0  0
   15.6158    5.7158    0.0000 C   0  0  0  0  0  0  0  0  0  0  0  0
   16.3302    6.1283    0.0000 C   0  0  0  0  0  0  0  0  0  0  0  0
   17.0447    5.7158    0.0000 C   0  0  0  0  0  0  0  0  0  0  0  0
   17.7592    6.1283    0.0000 C   0  0  0  0  0  0  0  0  0  0  0  0
   18.4737    5.7158    0.0000 C   0  0  0  0  0  0  0  0  0  0  0  0
   19.1881    6.1283    0.0000 C   0  0  0  0  0  0  0  0  0  0  0  0
   19.9026    5.7158    0.0000 C   0  0  0  0  0  0  0  0  0  0  0  0
   19.9026    4.8908    0.0000 O   0  0  0  0  0  0  0  0  0  0  0  0
   20.6171    6.1283    0.0000 O   0  0  0  0  0  0  0  0  0  0  0  0
   21.3315    5.7158    0.0000 C   0  0  0  0  0  0  0  0  0  0  0  0
   22.0460    6.1283    0.0000 C   0  0  0  0  0  0  0  0  0  0  0  0
   21.3315    4.8908    0.0000 C   0  0  0  0  0  0  0  0  0  0  0  0
  1  2  1  0  0  0  0
  2  3  1  0  0  0  0
  3  4  1  0  0  0  0
  4  5  1  0  0  0  0
  5  6  1  0  0  0  0
  6  7  1  0  0  0  0
  7  8  1  0  0  0  0
  8  9  1  0  0  0  0
  9 10  1  0  0  0  0
 10 11  1  0  0  0  0
 11 12  1  0  0  0  0
 12 13  1  0  0  0  0
 13 14  1  0  0  0  0
 14 15  1  0  0  0  0
 15 16  1  0  0  0  0
 16 17  2  0  0  0  0
 16 18  1  0  0  0  0
 18 19  1  0  0  0  0
 19 20  1  0  0  0  0
 19 21  1  0  0  0  0
M  END
> <RowID>
1791

> <Original_SMILES>
CCCCCCCCCCCCCCCC(=O)OC(C)C

> <Canonical_QSARr>
CCCCCCCCCCCCCCCC(=O)OC(C)C

> <InChI_Code_QSARr>
InChI=1S/C19H38O2/c1-4-5-6-7-8-9-10-11-12-13-14-15-16-17-19(20)21-18(2)3/h18H,4-17H2,1-3H3

> <InChI Key_QSARr>
XUGNVMKQXJXZCD-UHFFFAOYSA-N

> <Salt_Solvent>


> <Salt_Solvent_ID>
0

> <Number of connected components>
1

$$$$
Molecule_1792
  Mrv2316 01072400032D          

 10  9  0  0  0  0            999 V2000
    2.9980    2.5559    0.0000 C   0  0  0  0  0  0  0  0  0  0  0  0
    3.7125    2.1434    0.0000 C   0  0  0  0  0  0  0  0  0  0  0  0
    4.4270    2.5559    0.0000 C   0  0  0  0  0  0  0  0  0  0  0  0
    5.1414    2.1434    0.0000 C   0  0  0  0  0  0  0  0  0  0  0  0
    5.8559    2.5559    0.0000 C   0  0  0  0  0  0  0  0  0  0  0  0
    6.5704    2.1434    0.0000 C   0  0  0  0  0  0  0  0  0  0  0  0
    7.2849    2.5559    0.0000 O   0  0  0  0  0  0  0  0  0  0  0  0
    7.9993    2.1434    0.0000 C   0  0  0  0  0  0  0  0  0  0  0  0
    8.7138    2.5559    0.0000 C   0  0  0  0  0  0  0  0  0  0  0  0
    7.9993    1.3184    0.0000 O   0  0  0  0  0  0  0  0  0  0  0  0
  1  2  1  0  0  0  0
  2  3  1  0  0  0  0
  3  4  1  0  0  0  0
  4  5  1  0  0  0  0
  5  6  1  0  0  0  0
  6  7  1  0  0  0  0
  7  8  1  0  0  0  0
  8  9  1  0  0  0  0
  8 10  2  0  0  0  0
M  END
> <RowID>
1792

> <Original_SMILES>
CCCCCCOC(C)=O

> <Canonical_QSARr>
CCCCCCOC(C)=O

> <InChI_Code_QSARr>
InChI=1S/C8H16O2/c1-3-4-5-6-7-10-8(2)9/h3-7H2,1-2H3

> <InChI Key_QSARr>
AOGQPLXWSUTHQB-UHFFFAOYSA-N

> <Salt_Solvent>


> <Salt_Solvent_ID>
0

> <Number of connected components>
1

$$$$
Molecule_1793
  Mrv2316 01072400032D          

 30 29  0  0  0  0            999 V2000
    8.4711    5.7158    0.0000 C   0  0  0  0  0  0  0  0  0  0  0  0
    9.1855    6.1283    0.0000 C   0  0  0  0  0  0  0  0  0  0  0  0
    9.9000    5.7158    0.0000 C   0  0  0  0  0  0  0  0  0  0  0  0
   10.6145    6.1283    0.0000 C   0  0  0  0  0  0  0  0  0  0  0  0
   11.3290    5.7158    0.0000 C   0  0  0  0  0  0  0  0  0  0  0  0
   12.0434    6.1283    0.0000 C   0  0  0  0  0  0  0  0  0  0  0  0
   12.7579    5.7158    0.0000 C   0  0  0  0  0  0  0  0  0  0  0  0
   13.4724    6.1283    0.0000 C   0  0  0  0  0  0  0  0  0  0  0  0
   14.1868    5.7158    0.0000 C   0  0  0  0  0  0  0  0  0  0  0  0
   14.9013    6.1283    0.0000 C   0  0  0  0  0  0  0  0  0  0  0  0
   15.6158    5.7158    0.0000 O   0  0  0  0  0  0  0  0  0  0  0  0
   16.3302    6.1283    0.0000 C   0  0  0  0  0  0  0  0  0  0  0  0
   16.3302    6.9533    0.0000 O   0  0  0  0  0  0  0  0  0  0  0  0
   17.0447    5.7158    0.0000 C   0  0  0  0  0  0  0  0  0  0  0  0
   17.7592    6.1283    0.0000 C   0  0  0  0  0  0  0  0  0  0  0  0
   18.4737    5.7158    0.0000 C   0  0  0  0  0  0  0  0  0  0  0  0
   19.1881    6.1283    0.0000 C   0  0  0  0  0  0  0  0  0  0  0  0
   19.9026    5.7158    0.0000 C   0  0  0  0  0  0  0  0  0  0  0  0
   20.6171    6.1283    0.0000 C   0  0  0  0  0  0  0  0  0  0  0  0
   21.3315    5.7158    0.0000 C   0  0  0  0  0  0  0  0  0  0  0  0
   22.0460    6.1283    0.0000 C   0  0  0  0  0  0  0  0  0  0  0  0
   22.7605    5.7158    0.0000 C   0  0  0  0  0  0  0  0  0  0  0  0
   23.4750    6.1283    0.0000 C   0  0  0  0  0  0  0  0  0  0  0  0
   23.4750    6.9533    0.0000 C   0  0  0  0  0  0  0  0  0  0  0  0
   24.1894    7.3658    0.0000 C   0  0  0  0  0  0  0  0  0  0  0  0
   24.1894    8.1908    0.0000 C   0  0  0  0  0  0  0  0  0  0  0  0
   24.9039    8.6033    0.0000 C   0  0  0  0  0  0  0  0  0  0  0  0
   24.9039    9.4283    0.0000 C   0  0  0  0  0  0  0  0  0  0  0  0
   25.6184    9.8408    0.0000 C   0  0  0  0  0  0  0  0  0  0  0  0
   25.6184   10.6658    0.0000 C   0  0  0  0  0  0  0  0  0  0  0  0
  1  2  1  0  0  0  0
  2  3  1  0  0  0  0
  3  4  1  0  0  0  0
  4  5  1  0  0  0  0
  5  6  1  0  0  0  0
  6  7  1  0  0  0  0
  7  8  1  0  0  0  0
  8  9  1  0  0  0  0
  9 10  1  0  0  0  0
 10 11  1  0  0  0  0
 11 12  1  0  0  0  0
 12 13  2  0  0  0  0
 12 14  1  0  0  0  0
 14 15  1  0  0  0  0
 15 16  1  0  0  0  0
 16 17  1  0  0  0  0
 17 18  1  0  0  0  0
 18 19  1  0  0  0  0
 19 20  1  0  0  0  0
 21 20  1  4  0  0  0
 21 22  2  0  0  0  0
 22 23  1  0  0  0  0
 23 24  1  0  0  0  0
 24 25  1  0  0  0  0
 25 26  1  0  0  0  0
 26 27  1  0  0  0  0
 27 28  1  0  0  0  0
 28 29  1  0  0  0  0
 29 30  1  0  0  0  0
M  END
> <RowID>
1793

> <Original_SMILES>
CCCCCCCCCCOC(=O)CCCCCCCC=CCCCCCCCC

> <Canonical_QSARr>
CCCCCCCCCCOC(=O)CCCCCCCC=CCCCCCCCC

> <InChI_Code_QSARr>
InChI=1S/C28H54O2/c1-3-5-7-9-11-13-14-15-16-17-18-19-20-22-24-26-28(29)30-27-25-23-21-12-10-8-6-4-2/h15-16H,3-14,17-27H2,1-2H3

> <InChI Key_QSARr>
SASYSVUEVMOWPL-UHFFFAOYSA-N

> <Salt_Solvent>


> <Salt_Solvent_ID>
0

> <Number of connected components>
1

$$$$
Molecule_1794
  Mrv2316 01072400032D          

 27 30  0  0  0  0            999 V2000
    2.8579   -0.8250    0.0000 O   0  0  0  0  0  0  0  0  0  0  0  0
    2.8579   -1.6500    0.0000 S   0  0  0  0  0  0  0  0  0  0  0  0
    3.6829   -1.6500    0.0000 O   0  0  0  0  0  0  0  0  0  0  0  0
    2.0329   -1.6500    0.0000 O   0  0  0  0  0  0  0  0  0  0  0  0
    2.8579   -2.4750    0.0000 C   0  0  0  0  0  0  0  0  0  0  0  0
    2.1434   -2.8875    0.0000 C   0  0  0  0  0  0  0  0  0  0  0  0
    1.4289   -2.4750    0.0000 N   0  0  0  0  0  0  0  0  0  0  0  0
    1.4289   -1.6500    0.0000 N   0  0  0  0  0  0  0  0  0  0  0  0
    0.7145   -1.2375    0.0000 C   0  0  0  0  0  0  0  0  0  0  0  0
    0.7145   -0.4125    0.0000 C   0  0  0  0  0  0  0  0  0  0  0  0
   -0.0000   -0.0000    0.0000 C   0  0  0  0  0  0  0  0  0  0  0  0
   -0.0000    0.8250    0.0000 C   0  0  0  0  0  0  0  0  0  0  0  0
    0.7145    1.2375    0.0000 C   0  0  0  0  0  0  0  0  0  0  0  0
    1.4289    0.8250    0.0000 C   0  0  0  0  0  0  0  0  0  0  0  0
    1.4289    0.0000    0.0000 C   0  0  0  0  0  0  0  0  0  0  0  0
   -0.7145   -0.4125    0.0000 C   0  0  0  0  0  0  0  0  0  0  0  0
   -0.7145   -1.2375    0.0000 C   0  0  0  0  0  0  0  0  0  0  0  0
   -0.0000   -1.6500    0.0000 C   0  0  0  0  0  0  0  0  0  0  0  0
   -0.0000   -2.4750    0.0000 O   0  0  0  0  0  0  0  0  0  0  0  0
    2.1434   -3.7125    0.0000 C   0  0  0  0  0  0  0  0  0  0  0  0
    2.8579   -4.1250    0.0000 C   0  0  0  0  0  0  0  0  0  0  0  0
    3.5724   -3.7125    0.0000 C   0  0  0  0  0  0  0  0  0  0  0  0
    3.5724   -2.8875    0.0000 C   0  0  0  0  0  0  0  0  0  0  0  0
    4.2868   -2.4750    0.0000 C   0  0  0  0  0  0  0  0  0  0  0  0
    5.0013   -2.8875    0.0000 C   0  0  0  0  0  0  0  0  0  0  0  0
    5.0013   -3.7125    0.0000 C   0  0  0  0  0  0  0  0  0  0  0  0
    4.2868   -4.1250    0.0000 C   0  0  0  0  0  0  0  0  0  0  0  0
  1  2  1  0  0  0  0
  2  3  2  0  0  0  0
  2  4  2  0  0  0  0
  2  5  1  0  0  0  0
  6  5  2  0  0  0  0
  7  6  1  4  0  0  0
  7  8  2  0  0  0  0
  8  9  1  0  0  0  0
 10  9  1  0  0  0  0
 10 11  1  0  0  0  0
 11 12  2  0  0  0  0
 12 13  1  0  0  0  0
 13 14  2  0  0  0  0
 14 15  1  0  0  0  0
 15 10  2  0  0  0  0
 16 11  1  0  0  0  0
 17 16  2  0  0  0  0
 18 17  1  0  0  0  0
  9 18  2  0  0  0  0
 18 19  1  0  0  0  0
 20  6  1  0  0  0  0
 21 20  2  0  0  0  0
 22 21  1  0  0  0  0
 22 23  2  0  0  0  0
  5 23  1  0  0  0  0
 23 24  1  0  0  0  0
 24 25  2  0  0  0  0
 25 26  1  0  0  0  0
 26 27  2  0  0  0  0
 27 22  1  0  0  0  0
M  END
> <RowID>
1794

> <Original_SMILES>
[Ca+2].[O-]S(=O)(=O)C1C2C=CC=CC=2C=CC=1N=NC1C2C=CC=CC=2C=CC=1O.[O-]S(=O)(=O)C1C2C=CC=CC=2C=CC=1N=NC1C2C=CC=CC=2C=CC=1O

> <Canonical_QSARr>
OC1C=CC2=CC=CC=C2C=1N=NC1C=CC2C=CC=CC=2C=1S(O)(=O)=O

> <InChI_Code_QSARr>
InChI=1S/C20H14N2O4S/c23-18-12-10-13-5-1-3-7-15(13)19(18)22-21-17-11-9-14-6-2-4-8-16(14)20(17)27(24,25)26/h1-12,23H,(H,24,25,26)

> <InChI Key_QSARr>
SRPCPRSDICCCRQ-UHFFFAOYSA-N

> <Salt_Solvent>
[Ca+2]

> <Salt_Solvent_ID>
200

> <Number of connected components>
3

$$$$
Molecule_1795
  Mrv2316 01072400032D          

 11 10  0  0  0  0            999 V2000
    3.9039    0.6039    0.0000 C   0  0  0  0  0  0  0  0  0  0  0  0
    3.9039    1.4289    0.0000 C   0  0  0  0  0  0  0  0  0  0  0  0
    3.1895    1.8414    0.0000 C   0  0  0  0  0  0  0  0  0  0  0  0
    2.4750    1.4289    0.0000 C   0  0  0  0  0  0  0  0  0  0  0  0
    1.7605    1.8414    0.0000 O   0  0  0  0  0  0  0  0  0  0  0  0
    4.6184    1.8414    0.0000 C   0  0  0  0  0  0  0  0  0  0  0  0
    5.3329    1.4289    0.0000 C   0  0  0  0  0  0  0  0  0  0  0  0
    6.0473    1.8414    0.0000 C   0  0  0  0  0  0  0  0  0  0  0  0
    6.7618    1.4289    0.0000 C   0  0  0  0  0  0  0  0  0  0  0  0
    7.4763    1.8414    0.0000 C   0  0  0  0  0  0  0  0  0  0  0  0
    6.7618    0.6039    0.0000 C   0  0  0  0  0  0  0  0  0  0  0  0
  1  2  1  0  0  0  0
  2  3  1  0  0  0  0
  3  4  1  0  0  0  0
  4  5  1  0  0  0  0
  2  6  1  0  0  0  0
  6  7  1  0  0  0  0
  7  8  1  0  0  0  0
  8  9  2  0  0  0  0
  9 10  1  0  0  0  0
  9 11  1  0  0  0  0
M  END
> <RowID>
1795

> <Original_SMILES>
CC(CCO)CCC=C(C)C

> <Canonical_QSARr>
CC(CCO)CCC=C(C)C

> <InChI_Code_QSARr>
InChI=1S/C10H20O/c1-9(2)5-4-6-10(3)7-8-11/h5,10-11H,4,6-8H2,1-3H3

> <InChI Key_QSARr>
QMVPMAAFGQKVCJ-UHFFFAOYSA-N

> <Salt_Solvent>


> <Salt_Solvent_ID>
0

> <Number of connected components>
1

$$$$
Molecule_1796
  Mrv2316 01072400032D          

 15 14  0  0  0  0            999 V2000
    0.1404    1.7311    0.0000 O   0  0  0  0  0  0  0  0  0  0  0  0
    0.8549    2.1436    0.0000 S   0  0  0  0  0  0  0  0  0  0  0  0
    1.2674    1.4291    0.0000 O   0  0  0  0  0  0  0  0  0  0  0  0
    0.4424    2.8580    0.0000 O   0  0  0  0  0  0  0  0  0  0  0  0
    1.5694    2.5561    0.0000 O   0  0  0  0  0  0  0  0  0  0  0  0
    2.2838    2.1436    0.0000 C   0  0  0  0  0  0  0  0  0  0  0  0
    2.9983    2.5561    0.0000 C   0  0  0  0  0  0  0  0  0  0  0  0
    3.7128    2.1436    0.0000 C   0  0  0  0  0  0  0  0  0  0  0  0
    4.4272    2.5561    0.0000 C   0  0  0  0  0  0  0  0  0  0  0  0
    5.1417    2.1436    0.0000 C   0  0  0  0  0  0  0  0  0  0  0  0
    5.8562    2.5561    0.0000 C   0  0  0  0  0  0  0  0  0  0  0  0
    6.5707    2.1436    0.0000 C   0  0  0  0  0  0  0  0  0  0  0  0
    7.2851    2.5561    0.0000 C   0  0  0  0  0  0  0  0  0  0  0  0
    7.9996    2.1436    0.0000 C   0  0  0  0  0  0  0  0  0  0  0  0
    8.7141    2.5561    0.0000 C   0  0  0  0  0  0  0  0  0  0  0  0
  1  2  1  0  0  0  0
  2  3  2  0  0  0  0
  2  4  2  0  0  0  0
  2  5  1  0  0  0  0
  5  6  1  0  0  0  0
  6  7  1  0  0  0  0
  7  8  1  0  0  0  0
  8  9  1  0  0  0  0
  9 10  1  0  0  0  0
 10 11  1  0  0  0  0
 11 12  1  0  0  0  0
 12 13  1  0  0  0  0
 13 14  1  0  0  0  0
 14 15  1  0  0  0  0
M  END
> <RowID>
1796

> <Original_SMILES>
[Na+].CCCCCCCCCCOS([O-])(=O)=O

> <Canonical_QSARr>
CCCCCCCCCCOS(O)(=O)=O

> <InChI_Code_QSARr>
InChI=1S/C10H22O4S/c1-2-3-4-5-6-7-8-9-10-14-15(11,12)13/h2-10H2,1H3,(H,11,12,13)

> <InChI Key_QSARr>
CSMFSDCPJHNZRY-UHFFFAOYSA-N

> <Salt_Solvent>
[Na+]

> <Salt_Solvent_ID>
110

> <Number of connected components>
2

$$$$
Molecule_1797
  Mrv2316 01072400032D          

 27 26  0  0  0  0            999 V2000
    9.2368    5.3329    0.0000 O   0  0  0  0  0  0  0  0  0  0  0  0
    8.5224    5.7454    0.0000 C   0  0  0  0  0  0  0  0  0  0  0  0
    8.5224    6.5704    0.0000 O   0  0  0  0  0  0  0  0  0  0  0  0
    7.8079    5.3329    0.0000 C   0  0  0  0  0  0  0  0  0  0  0  0
    7.8079    4.5079    0.0000 N   0  0  0  0  0  0  0  0  0  0  0  0
    7.0934    4.0954    0.0000 C   0  0  0  0  0  0  0  0  0  0  0  0
    6.3789    4.5079    0.0000 C   0  0  0  0  0  0  0  0  0  0  0  0
    5.6645    4.0954    0.0000 N   0  0  0  0  0  0  0  0  0  0  0  0
    4.9500    4.5079    0.0000 C   0  0  0  0  0  0  0  0  0  0  0  0
    4.9500    5.3329    0.0000 C   0  0  0  0  0  0  0  0  0  0  0  0
    5.6645    5.7454    0.0000 O   0  0  0  0  0  0  0  0  0  0  0  0
    4.2355    5.7454    0.0000 O   0  0  0  0  0  0  0  0  0  0  0  0
    5.6645    3.2704    0.0000 C   0  0  0  0  0  0  0  0  0  0  0  0
    4.9500    2.8579    0.0000 C   0  0  0  0  0  0  0  0  0  0  0  0
    4.2355    3.2704    0.0000 O   0  0  0  0  0  0  0  0  0  0  0  0
    4.9500    2.0329    0.0000 O   0  0  0  0  0  0  0  0  0  0  0  0
    8.5224    4.0954    0.0000 C   0  0  0  0  0  0  0  0  0  0  0  0
    9.2368    4.5079    0.0000 C   0  0  0  0  0  0  0  0  0  0  0  0
    9.9513    4.0954    0.0000 N   0  0  0  0  0  0  0  0  0  0  0  0
   10.6658    4.5079    0.0000 C   0  0  0  0  0  0  0  0  0  0  0  0
   10.6658    5.3329    0.0000 C   0  0  0  0  0  0  0  0  0  0  0  0
    9.9513    5.7454    0.0000 O   0  0  0  0  0  0  0  0  0  0  0  0
   11.3802    5.7454    0.0000 O   0  0  0  0  0  0  0  0  0  0  0  0
    9.9513    3.2704    0.0000 C   0  0  0  0  0  0  0  0  0  0  0  0
   10.6658    2.8579    0.0000 C   0  0  0  0  0  0  0  0  0  0  0  0
   11.3802    3.2704    0.0000 O   0  0  0  0  0  0  0  0  0  0  0  0
   10.6658    2.0329    0.0000 O   0  0  0  0  0  0  0  0  0  0  0  0
  1  2  1  0  0  0  0
  2  3  2  0  0  0  0
  2  4  1  0  0  0  0
  4  5  1  0  0  0  0
  5  6  1  0  0  0  0
  6  7  1  0  0  0  0
  7  8  1  0  0  0  0
  8  9  1  0  0  0  0
  9 10  1  0  0  0  0
 10 11  1  0  0  0  0
 10 12  2  0  0  0  0
  8 13  1  0  0  0  0
 13 14  1  0  0  0  0
 14 15  1  0  0  0  0
 14 16  2  0  0  0  0
  5 17  1  0  0  0  0
 17 18  1  0  0  0  0
 18 19  1  0  0  0  0
 19 20  1  0  0  0  0
 20 21  1  0  0  0  0
 21 22  1  0  0  0  0
 21 23  2  0  0  0  0
 19 24  1  0  0  0  0
 24 25  1  0  0  0  0
 25 26  1  0  0  0  0
 25 27  2  0  0  0  0
M  END
> <RowID>
1797

> <Original_SMILES>
OC(=O)CN(CCN(CC(O)=O)CC(O)=O)CCN(CC(O)=O)CC(O)=O

> <Canonical_QSARr>
OC(=O)CN(CCN(CC(O)=O)CC(O)=O)CCN(CC(O)=O)CC(O)=O

> <InChI_Code_QSARr>
InChI=1S/C14H23N3O10/c18-10(19)5-15(1-3-16(6-11(20)21)7-12(22)23)2-4-17(8-13(24)25)9-14(26)27/h1-9H2,(H,18,19)(H,20,21)(H,22,23)(H,24,25)(H,26,27)

> <InChI Key_QSARr>
QPCDCPDFJACHGM-UHFFFAOYSA-N

> <Salt_Solvent>


> <Salt_Solvent_ID>
0

> <Number of connected components>
1

$$$$
Molecule_1798
  Mrv2316 01072400032D          

 20 19  0  0  0  0            999 V2000
    2.8875    2.1434    0.0000 O   0  0  0  0  0  0  0  0  0  0  0  0
    2.4750    1.4289    0.0000 P   0  0  0  0  0  0  0  0  0  0  0  0
    1.7605    1.8414    0.0000 O   0  0  0  0  0  0  0  0  0  0  0  0
    1.7605    2.6664    0.0000 C   0  0  0  0  0  0  0  0  0  0  0  0
    2.4750    3.0789    0.0000 C   0  0  0  0  0  0  0  0  0  0  0  0
    2.4750    3.9039    0.0000 Cl  0  0  0  0  0  0  0  0  0  0  0  0
    1.0461    3.0789    0.0000 C   0  0  0  0  0  0  0  0  0  0  0  0
    1.0461    3.9039    0.0000 Cl  0  0  0  0  0  0  0  0  0  0  0  0
    3.1895    1.0164    0.0000 O   0  0  0  0  0  0  0  0  0  0  0  0
    3.9039    1.4289    0.0000 C   0  0  0  0  0  0  0  0  0  0  0  0
    4.6184    1.0164    0.0000 C   0  0  0  0  0  0  0  0  0  0  0  0
    5.3329    1.4289    0.0000 Cl  0  0  0  0  0  0  0  0  0  0  0  0
    3.9039    2.2539    0.0000 C   0  0  0  0  0  0  0  0  0  0  0  0
    4.6184    2.6664    0.0000 Cl  0  0  0  0  0  0  0  0  0  0  0  0
    2.0625    0.7144    0.0000 O   0  0  0  0  0  0  0  0  0  0  0  0
    1.2375    0.7144    0.0000 C   0  0  0  0  0  0  0  0  0  0  0  0
    0.8250    1.4289    0.0000 C   0  0  0  0  0  0  0  0  0  0  0  0
    1.2375    2.1434    0.0000 Cl  0  0  0  0  0  0  0  0  0  0  0  0
    0.8250   -0.0000    0.0000 C   0  0  0  0  0  0  0  0  0  0  0  0
   -0.0000   -0.0000    0.0000 Cl  0  0  0  0  0  0  0  0  0  0  0  0
  1  2  2  0  0  0  0
  2  3  1  0  0  0  0
  3  4  1  0  0  0  0
  4  5  1  0  0  0  0
  5  6  1  0  0  0  0
  4  7  1  0  0  0  0
  7  8  1  0  0  0  0
  2  9  1  0  0  0  0
  9 10  1  0  0  0  0
 10 11  1  0  0  0  0
 11 12  1  0  0  0  0
 10 13  1  0  0  0  0
 13 14  1  0  0  0  0
  2 15  1  0  0  0  0
 15 16  1  0  0  0  0
 16 17  1  0  0  0  0
 17 18  1  0  0  0  0
 16 19  1  0  0  0  0
 19 20  1  0  0  0  0
M  END
> <RowID>
1798

> <Original_SMILES>
O=P(OC(CCl)CCl)(OC(CCl)CCl)OC(CCl)CCl

> <Canonical_QSARr>
O=P(OC(CCl)CCl)(OC(CCl)CCl)OC(CCl)CCl

> <InChI_Code_QSARr>
InChI=1S/C9H15Cl6O4P/c10-1-7(2-11)17-20(16,18-8(3-12)4-13)19-9(5-14)6-15/h7-9H,1-6H2

> <InChI Key_QSARr>
ASLWPAWFJZFCKF-UHFFFAOYSA-N

> <Salt_Solvent>


> <Salt_Solvent_ID>
0

> <Number of connected components>
1

$$$$
Molecule_1799
  Mrv2316 01072400032D          

  9  9  0  0  0  0            999 V2000
    1.4289    0.8250    0.0000 N   0  0  0  0  0  0  0  0  0  0  0  0
    0.7145    1.2375    0.0000 C   0  0  0  0  0  0  0  0  0  0  0  0
    0.7145    2.0625    0.0000 O   0  0  0  0  0  0  0  0  0  0  0  0
   -0.0000    0.8250    0.0000 N   0  0  0  0  0  0  0  0  0  0  0  0
   -0.0000    0.0000    0.0000 C   0  0  0  0  0  0  0  0  0  0  0  0
   -0.7145   -0.4125    0.0000 O   0  0  0  0  0  0  0  0  0  0  0  0
    0.7145   -0.4125    0.0000 N   0  0  0  0  0  0  0  0  0  0  0  0
    1.4289   -0.0000    0.0000 C   0  0  0  0  0  0  0  0  0  0  0  0
    2.1434   -0.4125    0.0000 O   0  0  0  0  0  0  0  0  0  0  0  0
  2  1  1  0  0  0  0
  2  3  2  0  0  0  0
  4  2  1  0  0  0  0
  5  4  1  0  0  0  0
  5  6  2  0  0  0  0
  7  5  1  0  0  0  0
  8  7  1  0  0  0  0
  1  8  1  0  0  0  0
  8  9  2  0  0  0  0
M  END
> <RowID>
1799

> <Original_SMILES>
[Na+].[Na+].[Na+].O=C1[N-]C(=O)[N-]C(=O)[N-]1

> <Canonical_QSARr>
O=C1NC(=O)NC(=O)N1

> <InChI_Code_QSARr>
InChI=1S/C3H3N3O3/c7-1-4-2(8)6-3(9)5-1/h(H3,4,5,6,7,8,9)

> <InChI Key_QSARr>
ZFSLODLOARCGLH-UHFFFAOYSA-N

> <Salt_Solvent>
[Na+]

> <Salt_Solvent_ID>
110

> <Number of connected components>
4

$$$$
Molecule_1800
  Mrv2316 01072400032D          

 10  9  0  0  0  0            999 V2000
   -0.1914    0.7145    0.0000 O   0  0  0  0  0  0  0  0  0  0  0  0
    0.5230    1.1270    0.0000 C   0  0  0  0  0  0  0  0  0  0  0  0
    0.5230    1.9520    0.0000 O   0  0  0  0  0  0  0  0  0  0  0  0
    1.2375    0.7145    0.0000 C   0  0  0  0  0  0  0  0  0  0  0  0
    1.9520    1.1270    0.0000 C   0  0  0  0  0  0  0  0  0  0  0  0
    1.9520    1.9520    0.0000 O   0  0  0  0  0  0  0  0  0  0  0  0
    2.6664    0.7145    0.0000 C   0  0  0  0  0  0  0  0  0  0  0  0
    3.3809    1.1270    0.0000 O   0  0  0  0  0  0  0  0  0  0  0  0
    2.6664   -0.1105    0.0000 O   0  0  0  0  0  0  0  0  0  0  0  0
    1.2375   -0.1105    0.0000 O   0  0  0  0  0  0  0  0  0  0  0  0
  1  2  1  0  0  0  0
  2  3  2  0  0  0  0
  2  4  1  0  0  0  0
  4  5  1  0  0  0  0
  5  6  1  0  0  0  0
  5  7  1  0  0  0  0
  7  8  1  0  0  0  0
  7  9  2  0  0  0  0
  4 10  1  0  0  0  0
M  END
> <RowID>
1800

> <Original_SMILES>
[K+].[K+].[O-]C(=O)C(O)C(O)C([O-])=O

> <Canonical_QSARr>
OC(=O)C(O)C(O)C(O)=O

> <InChI_Code_QSARr>
InChI=1S/C4H6O6/c5-1(3(7)8)2(6)4(9)10/h1-2,5-6H,(H,7,8)(H,9,10)

> <InChI Key_QSARr>
FEWJPZIEWOKRBE-UHFFFAOYSA-N

> <Salt_Solvent>
[K+]

> <Salt_Solvent_ID>
190

> <Number of connected components>
3

$$$$
Molecule_1802
  Mrv2316 01072400032D          

 10  9  0  0  0  0            999 V2000
   -0.1914    0.7145    0.0000 O   0  0  0  0  0  0  0  0  0  0  0  0
    0.5230    1.1270    0.0000 C   0  0  0  0  0  0  0  0  0  0  0  0
    0.5230    1.9520    0.0000 O   0  0  0  0  0  0  0  0  0  0  0  0
    1.2375    0.7145    0.0000 C   0  0  0  0  0  0  0  0  0  0  0  0
    1.9520    1.1270    0.0000 C   0  0  0  0  0  0  0  0  0  0  0  0
    1.9520    1.9520    0.0000 O   0  0  0  0  0  0  0  0  0  0  0  0
    2.6664    0.7145    0.0000 C   0  0  0  0  0  0  0  0  0  0  0  0
    3.3809    1.1270    0.0000 O   0  0  0  0  0  0  0  0  0  0  0  0
    2.6664   -0.1105    0.0000 O   0  0  0  0  0  0  0  0  0  0  0  0
    1.2375   -0.1105    0.0000 O   0  0  0  0  0  0  0  0  0  0  0  0
  1  2  1  0  0  0  0
  2  3  2  0  0  0  0
  2  4  1  0  0  0  0
  4  5  1  0  0  0  0
  5  6  1  0  0  0  0
  5  7  1  0  0  0  0
  7  8  1  0  0  0  0
  7  9  2  0  0  0  0
  4 10  1  0  0  0  0
M  END
> <RowID>
1802

> <Original_SMILES>
[Na+].[K+].[O-]C(=O)C(O)C(O)C([O-])=O

> <Canonical_QSARr>
OC(=O)C(O)C(O)C(O)=O

> <InChI_Code_QSARr>
InChI=1S/C4H6O6/c5-1(3(7)8)2(6)4(9)10/h1-2,5-6H,(H,7,8)(H,9,10)

> <InChI Key_QSARr>
FEWJPZIEWOKRBE-UHFFFAOYSA-N

> <Salt_Solvent>
[Na+].[K+]

> <Salt_Solvent_ID>
150

> <Number of connected components>
3

$$$$
Molecule_1803
  Mrv2316 01072400032D          

 10 12  0  0  0  0            999 V2000
    0.1163   -2.0322    0.0000 C   0  0  0  0  0  0  0  0  0  0  0  0
    0.8517   -1.6585    0.0000 N   0  0  0  0  0  0  0  0  0  0  0  0
    1.5873   -2.0322    0.0000 C   0  0  0  0  0  0  0  0  0  0  0  0
    2.0368   -1.2419    0.0000 N   0  0  0  0  0  0  0  0  0  0  0  0
    2.0368   -0.4945    0.0000 C   0  0  0  0  0  0  0  0  0  0  0  0
    1.3012   -0.1208    0.0000 N   0  0  0  0  0  0  0  0  0  0  0  0
    0.8517   -0.9111    0.0000 C   0  0  0  0  0  0  0  0  0  0  0  0
    0.5657   -0.4945    0.0000 C   0  0  0  0  0  0  0  0  0  0  0  0
    0.5657   -1.2419    0.0000 N   0  0  0  0  0  0  0  0  0  0  0  0
    1.3012   -1.6156    0.0000 C   0  0  0  0  0  0  0  0  0  0  0  0
  2  1  1  0  0  0  0
  2  3  1  0  0  0  0
  3  4  1  0  0  0  0
  4 10  1  0  0  0  0
  5  6  1  0  0  0  0
  6  7  1  0  0  0  0
 10  9  1  0  0  0  0
  8  6  1  0  0  0  0
  1  9  1  0  0  0  0
  9  8  1  0  0  0  0
  7  2  1  0  0  0  0
  4  5  1  0  0  0  0
M  END
> <RowID>
1803

> <Original_SMILES>
ON(=O)=O.C1N2CN3CN1CN(C2)C3

> <Canonical_QSARr>
C1N2CN3CN1CN(C2)C3

> <InChI_Code_QSARr>
InChI=1S/C6H12N4/c1-7-2-9-4-8(1)5-10(3-7)6-9/h1-6H2

> <InChI Key_QSARr>
VKYKSIONXSXAKP-UHFFFAOYSA-N

> <Salt_Solvent>
ON(=O)=O

> <Salt_Solvent_ID>
1755

> <Number of connected components>
2

$$$$
Molecule_1804
  Mrv2316 01072400032D          

 50 55  0  0  0  0            999 V2000
    2.3434   -4.5375    0.0000 O   0  0  0  0  0  0  0  0  0  0  0  0
    3.0579   -4.9500    0.0000 S   0  0  0  0  0  0  0  0  0  0  0  0
    2.6454   -5.6645    0.0000 O   0  0  0  0  0  0  0  0  0  0  0  0
    3.4704   -4.2355    0.0000 O   0  0  0  0  0  0  0  0  0  0  0  0
    3.7724   -5.3625    0.0000 C   0  0  0  0  0  0  0  0  0  0  0  0
    4.4868   -4.9500    0.0000 C   0  0  0  0  0  0  0  0  0  0  0  0
    5.2013   -5.3625    0.0000 C   0  0  0  0  0  0  0  0  0  0  0  0
    5.9158   -4.9500    0.0000 C   0  0  0  0  0  0  0  0  0  0  0  0
    6.6302   -5.3625    0.0000 C   0  0  0  0  0  0  0  0  0  0  0  0
    7.3447   -4.9500    0.0000 N   0  0  0  0  0  0  0  0  0  0  0  0
    8.0592   -5.3625    0.0000 C   0  0  0  0  0  0  0  0  0  0  0  0
    8.7737   -4.9500    0.0000 N   0  0  0  0  0  0  0  0  0  0  0  0
    9.4881   -5.3625    0.0000 C   0  0  0  0  0  0  0  0  0  0  0  0
   10.2026   -4.9500    0.0000 C   0  0  0  0  0  0  0  0  0  0  0  0
   10.9171   -5.3625    0.0000 C   0  0  0  0  0  0  0  0  0  0  0  0
   11.6315   -4.9500    0.0000 C   0  0  0  0  0  0  0  0  0  0  0  0
   12.3460   -5.3625    0.0000 C   0  0  0  0  0  0  0  0  0  0  0  0
   12.3460   -6.1875    0.0000 C   0  0  0  0  0  0  0  0  0  0  0  0
   13.0605   -6.6000    0.0000 N   0  0  0  0  0  0  0  0  0  0  0  0
   13.0605   -7.4250    0.0000 N   0  0  0  0  0  0  0  0  0  0  0  0
   13.7750   -7.8375    0.0000 C   0  0  0  0  0  0  0  0  0  0  0  0
   13.7750   -8.6625    0.0000 C   0  0  0  0  0  0  0  0  0  0  0  0
   14.4894   -9.0750    0.0000 C   0  0  0  0  0  0  0  0  0  0  0  0
   15.2039   -8.6625    0.0000 C   0  0  0  0  0  0  0  0  0  0  0  0
   15.2039   -7.8375    0.0000 C   0  0  0  0  0  0  0  0  0  0  0  0
   14.4894   -7.4250    0.0000 C   0  0  0  0  0  0  0  0  0  0  0  0
   11.6315   -6.6000    0.0000 C   0  0  0  0  0  0  0  0  0  0  0  0
   11.6315   -7.4250    0.0000 O   0  0  0  0  0  0  0  0  0  0  0  0
   10.9171   -6.1875    0.0000 C   0  0  0  0  0  0  0  0  0  0  0  0
   10.2026   -6.6000    0.0000 C   0  0  0  0  0  0  0  0  0  0  0  0
    9.4881   -6.1875    0.0000 C   0  0  0  0  0  0  0  0  0  0  0  0
   13.0605   -4.9500    0.0000 S   0  0  0  0  0  0  0  0  0  0  0  0
   13.7750   -4.5375    0.0000 O   0  0  0  0  0  0  0  0  0  0  0  0
   13.4730   -5.6645    0.0000 O   0  0  0  0  0  0  0  0  0  0  0  0
   12.6480   -4.2355    0.0000 O   0  0  0  0  0  0  0  0  0  0  0  0
    8.0592   -6.1875    0.0000 O   0  0  0  0  0  0  0  0  0  0  0  0
    6.6302   -6.1875    0.0000 C   0  0  0  0  0  0  0  0  0  0  0  0
    5.9158   -6.6000    0.0000 C   0  0  0  0  0  0  0  0  0  0  0  0
    5.2013   -6.1875    0.0000 C   0  0  0  0  0  0  0  0  0  0  0  0
    4.4868   -6.6000    0.0000 C   0  0  0  0  0  0  0  0  0  0  0  0
    4.4868   -7.4250    0.0000 O   0  0  0  0  0  0  0  0  0  0  0  0
    3.7724   -6.1875    0.0000 C   0  0  0  0  0  0  0  0  0  0  0  0
    3.0579   -6.6000    0.0000 N   0  0  0  0  0  0  0  0  0  0  0  0
    2.3434   -6.1875    0.0000 N   0  0  0  0  0  0  0  0  0  0  0  0
    1.6289   -6.6000    0.0000 C   0  0  0  0  0  0  0  0  0  0  0  0
    0.9145   -6.1875    0.0000 C   0  0  0  0  0  0  0  0  0  0  0  0
    0.2000   -6.6000    0.0000 C   0  0  0  0  0  0  0  0  0  0  0  0
    0.2000   -7.4250    0.0000 C   0  0  0  0  0  0  0  0  0  0  0  0
    0.9145   -7.8375    0.0000 C   0  0  0  0  0  0  0  0  0  0  0  0
    1.6289   -7.4250    0.0000 C   0  0  0  0  0  0  0  0  0  0  0  0
  1  2  1  0  0  0  0
  2  3  2  0  0  0  0
  2  4  2  0  0  0  0
  2  5  1  0  0  0  0
  6  5  2  0  0  0  0
  7  6  1  0  0  0  0
  7  8  1  0  0  0  0
  8  9  2  0  0  0  0
  9 10  1  0  0  0  0
 10 11  1  0  0  0  0
 11 12  1  0  0  0  0
 12 13  1  0  0  0  0
 14 13  2  0  0  0  0
 15 14  1  0  0  0  0
 15 16  1  0  0  0  0
 16 17  2  0  0  0  0
 17 18  1  0  0  0  0
 19 18  1  4  0  0  0
 19 20  2  0  0  0  0
 20 21  1  0  0  0  0
 22 21  2  0  0  0  0
 23 22  1  0  0  0  0
 24 23  2  0  0  0  0
 25 24  1  0  0  0  0
 26 25  2  0  0  0  0
 21 26  1  0  0  0  0
 18 27  2  0  0  0  0
 27 28  1  0  0  0  0
 27 29  1  0  0  0  0
 29 15  2  0  0  0  0
 30 29  1  0  0  0  0
 31 30  2  0  0  0  0
 13 31  1  0  0  0  0
 17 32  1  0  0  0  0
 32 33  1  0  0  0  0
 32 34  2  0  0  0  0
 32 35  2  0  0  0  0
 11 36  2  0  0  0  0
  9 37  1  0  0  0  0
 37 38  2  0  0  0  0
 38 39  1  0  0  0  0
 39  7  2  0  0  0  0
 40 39  1  0  0  0  0
 40 41  1  0  0  0  0
 42 40  2  0  0  0  0
  5 42  1  0  0  0  0
 43 42  1  4  0  0  0
 43 44  2  0  0  0  0
 44 45  1  0  0  0  0
 46 45  2  0  0  0  0
 47 46  1  0  0  0  0
 48 47  2  0  0  0  0
 49 48  1  0  0  0  0
 50 49  2  0  0  0  0
 45 50  1  0  0  0  0
M  END
> <RowID>
1804

> <Original_SMILES>
[Na+].[Na+].[O-]S(=O)(=O)C1=CC2C=C(C=CC=2C(O)=C1N=NC1C=CC=CC=1)NC(=O)NC1=CC2C=C(C(N=NC3C=CC=CC=3)=C(O)C=2C=C1)S([O-])(=O)=O

> <Canonical_QSARr>
OS(=O)(=O)C1=CC2C=C(C=CC=2C(O)=C1N=NC1C=CC=CC=1)NC(=O)NC1=CC2C=C(C(N=NC3C=CC=CC=3)=C(O)C=2C=C1)S(O)(=O)=O

> <InChI_Code_QSARr>
InChI=1S/C33H24N6O9S2/c40-31-25-13-11-23(15-19(25)17-27(49(43,44)45)29(31)38-36-21-7-3-1-4-8-21)34-33(42)35-24-12-14-26-20(16-24)18-28(50(46,47)48)30(32(26)41)39-37-22-9-5-2-6-10-22/h1-18,40-41H,(H2,34,35,42)(H,43,44,45)(H,46,47,48)

> <InChI Key_QSARr>
XKNUVBQTZXGYHL-UHFFFAOYSA-N

> <Salt_Solvent>
[Na+]

> <Salt_Solvent_ID>
110

> <Number of connected components>
3

$$$$
Molecule_1805
  Mrv2316 01072400032D          

 18 17  0  0  0  0            999 V2000
    5.9961    4.2868    0.0000 C   0  0  0  0  0  0  0  0  0  0  0  0
    6.7105    4.6993    0.0000 C   0  0  0  0  0  0  0  0  0  0  0  0
    7.4250    4.2868    0.0000 C   0  0  0  0  0  0  0  0  0  0  0  0
    8.1395    4.6993    0.0000 C   0  0  0  0  0  0  0  0  0  0  0  0
    8.8539    4.2868    0.0000 C   0  0  0  0  0  0  0  0  0  0  0  0
    9.5684    4.6993    0.0000 C   0  0  0  0  0  0  0  0  0  0  0  0
   10.2829    4.2868    0.0000 C   0  0  0  0  0  0  0  0  0  0  0  0
   10.9974    4.6993    0.0000 C   0  0  0  0  0  0  0  0  0  0  0  0
   11.7118    4.2868    0.0000 C   0  0  0  0  0  0  0  0  0  0  0  0
   12.4263    4.6993    0.0000 C   0  0  0  0  0  0  0  0  0  0  0  0
   13.1408    4.2868    0.0000 C   0  0  0  0  0  0  0  0  0  0  0  0
   13.8552    4.6993    0.0000 C   0  0  0  0  0  0  0  0  0  0  0  0
   13.8552    5.5243    0.0000 O   0  0  0  0  0  0  0  0  0  0  0  0
   14.5697    4.2868    0.0000 O   0  0  0  0  0  0  0  0  0  0  0  0
   15.2842    4.6993    0.0000 C   0  0  0  0  0  0  0  0  0  0  0  0
   15.9987    4.2868    0.0000 C   0  0  0  0  0  0  0  0  0  0  0  0
   16.7131    4.6993    0.0000 C   0  0  0  0  0  0  0  0  0  0  0  0
   15.9987    3.4618    0.0000 C   0  0  0  0  0  0  0  0  0  0  0  0
  1  2  1  0  0  0  0
  2  3  1  0  0  0  0
  3  4  1  0  0  0  0
  4  5  1  0  0  0  0
  5  6  1  0  0  0  0
  6  7  1  0  0  0  0
  7  8  1  0  0  0  0
  8  9  1  0  0  0  0
  9 10  1  0  0  0  0
 10 11  1  0  0  0  0
 11 12  1  0  0  0  0
 12 13  2  0  0  0  0
 12 14  1  0  0  0  0
 14 15  1  0  0  0  0
 15 16  1  0  0  0  0
 16 17  1  0  0  0  0
 16 18  1  0  0  0  0
M  END
> <RowID>
1805

> <Original_SMILES>
CCCCCCCCCCCC(=O)OCC(C)C

> <Canonical_QSARr>
CCCCCCCCCCCC(=O)OCC(C)C

> <InChI_Code_QSARr>
InChI=1S/C16H32O2/c1-4-5-6-7-8-9-10-11-12-13-16(17)18-14-15(2)3/h15H,4-14H2,1-3H3

> <InChI Key_QSARr>
SZFOMJOELAAHAF-UHFFFAOYSA-N

> <Salt_Solvent>


> <Salt_Solvent_ID>
0

> <Number of connected components>
1

$$$$
Molecule_1806
  Mrv2316 01072400032D          

 15 15  0  0  0  0            999 V2000
    3.2866    0.0825    0.0000 C   0  0  0  0  0  0  0  0  0  0  0  0
    2.5721    0.4950    0.0000 C   0  0  0  0  0  0  0  0  0  0  0  0
    2.5721    1.3200    0.0000 C   0  0  0  0  0  0  0  0  0  0  0  0
    1.8576    0.0825    0.0000 N   0  0  0  0  0  0  0  0  0  0  0  0
    1.1432    0.4950    0.0000 C   0  0  0  0  0  0  0  0  0  0  0  0
    1.1432    1.3200    0.0000 N   0  0  0  0  0  0  0  0  0  0  0  0
    0.4287    1.7325    0.0000 C   0  0  0  0  0  0  0  0  0  0  0  0
    0.4287    2.5575    0.0000 Cl  0  0  0  0  0  0  0  0  0  0  0  0
   -0.2858    1.3200    0.0000 N   0  0  0  0  0  0  0  0  0  0  0  0
   -0.2858    0.4950    0.0000 C   0  0  0  0  0  0  0  0  0  0  0  0
   -1.0003    0.0825    0.0000 N   0  0  0  0  0  0  0  0  0  0  0  0
   -1.7147    0.4950    0.0000 C   0  0  0  0  0  0  0  0  0  0  0  0
   -2.4292    0.0825    0.0000 C   0  0  0  0  0  0  0  0  0  0  0  0
   -1.7147    1.3200    0.0000 C   0  0  0  0  0  0  0  0  0  0  0  0
    0.4287    0.0825    0.0000 N   0  0  0  0  0  0  0  0  0  0  0  0
  1  2  1  0  0  0  0
  2  3  1  0  0  0  0
  2  4  1  0  0  0  0
  4  5  1  0  0  0  0
  6  5  2  0  0  0  0
  7  6  1  0  0  0  0
  7  8  1  0  0  0  0
  9  7  2  0  0  0  0
 10  9  1  0  0  0  0
 10 11  1  0  0  0  0
 11 12  1  0  0  0  0
 12 13  1  0  0  0  0
 12 14  1  0  0  0  0
 15 10  2  0  0  0  0
  5 15  1  0  0  0  0
M  END
> <RowID>
1806

> <Original_SMILES>
CC(C)NC1=NC(Cl)=NC(NC(C)C)=N1

> <Canonical_QSARr>
CC(C)NC1=NC(Cl)=NC(NC(C)C)=N1

> <InChI_Code_QSARr>
InChI=1S/C9H16ClN5/c1-5(2)11-8-13-7(10)14-9(15-8)12-6(3)4/h5-6H,1-4H3,(H2,11,12,13,14,15)

> <InChI Key_QSARr>
WJNRPILHGGKWCK-UHFFFAOYSA-N

> <Salt_Solvent>


> <Salt_Solvent_ID>
0

> <Number of connected components>
1

$$$$
Molecule_1808
  Mrv2316 01072400032D          

 22 24  0  0  0  0            999 V2000
    1.8187   -3.1500    0.0000 O   0  0  0  0  0  0  0  0  0  0  0  0
    1.8187   -2.3250    0.0000 C   0  0  0  0  0  0  0  0  0  0  0  0
    1.1042   -1.9125    0.0000 C   0  0  0  0  0  0  0  0  0  0  0  0
    1.1042   -1.0875    0.0000 C   0  0  0  0  0  0  0  0  0  0  0  0
    0.3897   -0.6750    0.0000 S   0  0  0  0  0  0  0  0  0  0  0  0
   -0.3248   -0.2625    0.0000 O   0  0  0  0  0  0  0  0  0  0  0  0
   -0.0228   -1.3895    0.0000 O   0  0  0  0  0  0  0  0  0  0  0  0
    0.8022    0.0395    0.0000 O   0  0  0  0  0  0  0  0  0  0  0  0
    1.8187   -0.6750    0.0000 C   0  0  0  0  0  0  0  0  0  0  0  0
    2.5331   -1.0875    0.0000 C   0  0  0  0  0  0  0  0  0  0  0  0
    3.2476   -0.6750    0.0000 C   0  0  0  0  0  0  0  0  0  0  0  0
    3.9621   -1.0875    0.0000 C   0  0  0  0  0  0  0  0  0  0  0  0
    3.9621   -1.9125    0.0000 C   0  0  0  0  0  0  0  0  0  0  0  0
    3.2476   -2.3250    0.0000 C   0  0  0  0  0  0  0  0  0  0  0  0
    2.5331   -1.9125    0.0000 C   0  0  0  0  0  0  0  0  0  0  0  0
    4.6765   -0.6750    0.0000 N   0  0  0  0  0  0  0  0  0  0  0  0
    4.6765    0.1500    0.0000 C   0  0  0  0  0  0  0  0  0  0  0  0
    5.3910    0.5625    0.0000 C   0  0  0  0  0  0  0  0  0  0  0  0
    5.3910    1.3875    0.0000 C   0  0  0  0  0  0  0  0  0  0  0  0
    4.6765    1.8000    0.0000 C   0  0  0  0  0  0  0  0  0  0  0  0
    3.9621    1.3875    0.0000 C   0  0  0  0  0  0  0  0  0  0  0  0
    3.9621    0.5625    0.0000 C   0  0  0  0  0  0  0  0  0  0  0  0
  1  2  1  0  0  0  0
  3  2  2  0  0  0  0
  4  3  1  0  0  0  0
  4  5  1  0  0  0  0
  5  6  1  0  0  0  0
  5  7  2  0  0  0  0
  5  8  2  0  0  0  0
  9  4  2  0  0  0  0
 10  9  1  0  0  0  0
 10 11  1  0  0  0  0
 11 12  2  0  0  0  0
 12 13  1  0  0  0  0
 13 14  2  0  0  0  0
 14 15  1  0  0  0  0
  2 15  1  0  0  0  0
 15 10  2  0  0  0  0
 12 16  1  0  0  0  0
 16 17  1  0  0  0  0
 18 17  1  0  0  0  0
 19 18  2  0  0  0  0
 20 19  1  0  0  0  0
 21 20  2  0  0  0  0
 22 21  1  0  0  0  0
 17 22  2  0  0  0  0
M  END
> <RowID>
1808

> <Original_SMILES>
OC1=CC(=CC2C=C(C=CC1=2)NC1C=CC=CC=1)S(O)(=O)=O

> <Canonical_QSARr>
OC1=CC(=CC2C=C(C=CC1=2)NC1C=CC=CC=1)S(O)(=O)=O

> <InChI_Code_QSARr>
InChI=1S/C16H13NO4S/c18-16-10-14(22(19,20)21)9-11-8-13(6-7-15(11)16)17-12-4-2-1-3-5-12/h1-10,17-18H,(H,19,20,21)

> <InChI Key_QSARr>
YGNDWDUEMICDLW-UHFFFAOYSA-N

> <Salt_Solvent>


> <Salt_Solvent_ID>
0

> <Number of connected components>
1

$$$$
Molecule_1809
  Mrv2316 01072400032D          

 14 16  0  0  0  0            999 V2000
    2.1434    1.2375    0.0000 C   0  0  0  0  0  0  0  0  0  0  0  0
    2.8579    0.8250    0.0000 C   0  0  0  0  0  0  0  0  0  0  0  0
    3.5724    1.2375    0.0000 C   0  0  0  0  0  0  0  0  0  0  0  0
    4.2868    0.8250    0.0000 C   0  0  0  0  0  0  0  0  0  0  0  0
    4.2868   -0.0000    0.0000 C   0  0  0  0  0  0  0  0  0  0  0  0
    3.5724   -0.4125    0.0000 C   0  0  0  0  0  0  0  0  0  0  0  0
    2.8579    0.0000    0.0000 C   0  0  0  0  0  0  0  0  0  0  0  0
    2.1434   -0.4125    0.0000 C   0  0  0  0  0  0  0  0  0  0  0  0
    1.4289    0.0000    0.0000 C   0  0  0  0  0  0  0  0  0  0  0  0
    0.7145   -0.4125    0.0000 C   0  0  0  0  0  0  0  0  0  0  0  0
    0.0000    0.0000    0.0000 C   0  0  0  0  0  0  0  0  0  0  0  0
    0.0000    0.8250    0.0000 C   0  0  0  0  0  0  0  0  0  0  0  0
    0.7145    1.2375    0.0000 C   0  0  0  0  0  0  0  0  0  0  0  0
    1.4289    0.8250    0.0000 C   0  0  0  0  0  0  0  0  0  0  0  0
  2  1  2  0  0  0  0
  2  3  1  0  0  0  0
  3  4  2  0  0  0  0
  4  5  1  0  0  0  0
  5  6  2  0  0  0  0
  6  7  1  0  0  0  0
  7  2  1  0  0  0  0
  8  7  2  0  0  0  0
  9  8  1  0  0  0  0
  9 10  1  0  0  0  0
 10 11  2  0  0  0  0
 11 12  1  0  0  0  0
 12 13  2  0  0  0  0
 13 14  1  0  0  0  0
  1 14  1  0  0  0  0
 14  9  2  0  0  0  0
M  END
> <RowID>
1809

> <Original_SMILES>
C1=C2C=CC=CC2=CC2C=CC=CC=21

> <Canonical_QSARr>
C1=C2C=CC=CC2=CC2C=CC=CC=21

> <InChI_Code_QSARr>
InChI=1S/C14H10/c1-2-6-12-10-14-8-4-3-7-13(14)9-11(12)5-1/h1-10H

> <InChI Key_QSARr>
MWPLVEDNUUSJAV-UHFFFAOYSA-N

> <Salt_Solvent>


> <Salt_Solvent_ID>
0

> <Number of connected components>
1

$$$$
Molecule_1810
  Mrv2316 01072400032D          

 20 22  0  0  0  0            999 V2000
    1.5395    0.4125    0.0000 O   0  0  0  0  0  0  0  0  0  0  0  0
    2.3645    0.4125    0.0000 P   0  0  0  0  0  0  0  0  0  0  0  0
    2.3645   -0.4125    0.0000 C   0  0  0  0  0  0  0  0  0  0  0  0
    1.6500   -0.8250    0.0000 C   0  0  0  0  0  0  0  0  0  0  0  0
    1.6500   -1.6500    0.0000 C   0  0  0  0  0  0  0  0  0  0  0  0
    2.3645   -2.0625    0.0000 C   0  0  0  0  0  0  0  0  0  0  0  0
    3.0790   -1.6500    0.0000 C   0  0  0  0  0  0  0  0  0  0  0  0
    3.0790   -0.8250    0.0000 C   0  0  0  0  0  0  0  0  0  0  0  0
    2.3645    1.2375    0.0000 C   0  0  0  0  0  0  0  0  0  0  0  0
    3.0790    1.6500    0.0000 C   0  0  0  0  0  0  0  0  0  0  0  0
    3.0790    2.4750    0.0000 C   0  0  0  0  0  0  0  0  0  0  0  0
    2.3645    2.8875    0.0000 C   0  0  0  0  0  0  0  0  0  0  0  0
    1.6500    2.4750    0.0000 C   0  0  0  0  0  0  0  0  0  0  0  0
    1.6500    1.6500    0.0000 C   0  0  0  0  0  0  0  0  0  0  0  0
    3.1895    0.4125    0.0000 C   0  0  0  0  0  0  0  0  0  0  0  0
    3.6020   -0.3020    0.0000 C   0  0  0  0  0  0  0  0  0  0  0  0
    4.4270   -0.3020    0.0000 C   0  0  0  0  0  0  0  0  0  0  0  0
    4.8395    0.4125    0.0000 C   0  0  0  0  0  0  0  0  0  0  0  0
    4.4270    1.1270    0.0000 C   0  0  0  0  0  0  0  0  0  0  0  0
    3.6020    1.1270    0.0000 C   0  0  0  0  0  0  0  0  0  0  0  0
  1  2  2  0  0  0  0
  2  3  1  0  0  0  0
  4  3  1  0  0  0  0
  5  4  2  0  0  0  0
  6  5  1  0  0  0  0
  7  6  2  0  0  0  0
  8  7  1  0  0  0  0
  3  8  2  0  0  0  0
  2  9  1  0  0  0  0
 10  9  1  0  0  0  0
 11 10  2  0  0  0  0
 12 11  1  0  0  0  0
 13 12  2  0  0  0  0
 14 13  1  0  0  0  0
  9 14  2  0  0  0  0
  2 15  1  0  0  0  0
 16 15  1  0  0  0  0
 17 16  2  0  0  0  0
 18 17  1  0  0  0  0
 19 18  2  0  0  0  0
 20 19  1  0  0  0  0
 15 20  2  0  0  0  0
M  END
> <RowID>
1810

> <Original_SMILES>
O=P(C1C=CC=CC=1)(C1C=CC=CC=1)C1C=CC=CC=1

> <Canonical_QSARr>
O=P(C1C=CC=CC=1)(C1C=CC=CC=1)C1C=CC=CC=1

> <InChI_Code_QSARr>
InChI=1S/C18H15OP/c19-20(16-10-4-1-5-11-16,17-12-6-2-7-13-17)18-14-8-3-9-15-18/h1-15H

> <InChI Key_QSARr>
FIQMHBFVRAXMOP-UHFFFAOYSA-N

> <Salt_Solvent>


> <Salt_Solvent_ID>
0

> <Number of connected components>
1

$$$$
Molecule_1812
  Mrv2316 01072400032D          

 46 49  0  0  0  0            999 V2000
   -1.0717   -2.0356    0.0000 O   0  0  0  0  0  0  0  0  0  0  0  0
   -0.3572   -1.6231    0.0000 S   0  0  0  0  0  0  0  0  0  0  0  0
    0.0553   -2.3376    0.0000 O   0  0  0  0  0  0  0  0  0  0  0  0
   -0.7697   -0.9086    0.0000 O   0  0  0  0  0  0  0  0  0  0  0  0
    0.3572   -1.2106    0.0000 C   0  0  0  0  0  0  0  0  0  0  0  0
    0.3572   -0.3856    0.0000 C   0  0  0  0  0  0  0  0  0  0  0  0
   -0.3572    0.0269    0.0000 N   0  0  0  0  0  0  0  0  0  0  0  0
   -0.3572    0.8519    0.0000 N   0  0  0  0  0  0  0  0  0  0  0  0
   -1.0717    1.2644    0.0000 C   0  0  0  0  0  0  0  0  0  0  0  0
   -1.0717    2.0894    0.0000 C   0  0  0  0  0  0  0  0  0  0  0  0
   -1.7862    2.5019    0.0000 C   0  0  0  0  0  0  0  0  0  0  0  0
   -2.5006    2.0894    0.0000 C   0  0  0  0  0  0  0  0  0  0  0  0
   -3.2151    2.5019    0.0000 S   0  0  0  0  0  0  0  0  0  0  0  0
   -3.9296    2.9144    0.0000 C   0  0  0  0  0  0  0  0  0  0  0  0
   -4.6440    2.5019    0.0000 C   0  0  0  0  0  0  0  0  0  0  0  0
   -3.6276    1.7874    0.0000 O   0  0  0  0  0  0  0  0  0  0  0  0
   -2.8026    3.2164    0.0000 O   0  0  0  0  0  0  0  0  0  0  0  0
   -2.5006    1.2644    0.0000 C   0  0  0  0  0  0  0  0  0  0  0  0
   -1.7862    0.8519    0.0000 C   0  0  0  0  0  0  0  0  0  0  0  0
    1.0717    0.0269    0.0000 C   0  0  0  0  0  0  0  0  0  0  0  0
    1.0717    0.8519    0.0000 N   0  0  0  0  0  0  0  0  0  0  0  0
    1.7862   -0.3856    0.0000 C   0  0  0  0  0  0  0  0  0  0  0  0
    2.5007    0.0269    0.0000 C   0  0  0  0  0  0  0  0  0  0  0  0
    3.2151   -0.3856    0.0000 C   0  0  0  0  0  0  0  0  0  0  0  0
    3.9296    0.0269    0.0000 N   0  0  0  0  0  0  0  0  0  0  0  0
    4.6441   -0.3856    0.0000 N   0  0  0  0  0  0  0  0  0  0  0  0
    5.3585    0.0269    0.0000 C   0  0  0  0  0  0  0  0  0  0  0  0
    6.0730   -0.3856    0.0000 C   0  0  0  0  0  0  0  0  0  0  0  0
    6.7875    0.0269    0.0000 C   0  0  0  0  0  0  0  0  0  0  0  0
    6.7875    0.8519    0.0000 C   0  0  0  0  0  0  0  0  0  0  0  0
    7.5020    1.2644    0.0000 S   0  0  0  0  0  0  0  0  0  0  0  0
    8.2164    1.6769    0.0000 C   0  0  0  0  0  0  0  0  0  0  0  0
    8.2164    2.5019    0.0000 C   0  0  0  0  0  0  0  0  0  0  0  0
    7.9145    0.5499    0.0000 O   0  0  0  0  0  0  0  0  0  0  0  0
    7.0895    1.9789    0.0000 O   0  0  0  0  0  0  0  0  0  0  0  0
    6.0730    1.2644    0.0000 C   0  0  0  0  0  0  0  0  0  0  0  0
    5.3585    0.8519    0.0000 C   0  0  0  0  0  0  0  0  0  0  0  0
    3.2151   -1.2106    0.0000 C   0  0  0  0  0  0  0  0  0  0  0  0
    2.5007   -1.6231    0.0000 C   0  0  0  0  0  0  0  0  0  0  0  0
    1.7862   -1.2106    0.0000 C   0  0  0  0  0  0  0  0  0  0  0  0
    1.0717   -1.6231    0.0000 C   0  0  0  0  0  0  0  0  0  0  0  0
    3.9296   -1.6231    0.0000 S   0  0  0  0  0  0  0  0  0  0  0  0
    4.6441   -2.0356    0.0000 O   0  0  0  0  0  0  0  0  0  0  0  0
    3.5171   -2.3376    0.0000 O   0  0  0  0  0  0  0  0  0  0  0  0
    4.3421   -0.9086    0.0000 O   0  0  0  0  0  0  0  0  0  0  0  0
    2.5007    0.8519    0.0000 O   0  0  0  0  0  0  0  0  0  0  0  0
  1  2  1  0  0  0  0
  2  3  2  0  0  0  0
  2  4  2  0  0  0  0
  2  5  1  0  0  0  0
  6  5  1  0  0  0  0
  7  6  1  4  0  0  0
  7  8  2  0  0  0  0
  8  9  1  0  0  0  0
 10  9  2  0  0  0  0
 11 10  1  0  0  0  0
 12 11  2  0  0  0  0
 12 13  1  0  0  0  0
 13 14  1  0  0  0  0
 14 15  2  0  0  0  0
 13 16  2  0  0  0  0
 13 17  2  0  0  0  0
 18 12  1  0  0  0  0
 19 18  2  0  0  0  0
  9 19  1  0  0  0  0
 20  6  2  0  0  0  0
 20 21  1  0  0  0  0
 22 20  1  0  0  0  0
 22 23  1  0  0  0  0
 23 24  2  0  0  0  0
 25 24  1  4  0  0  0
 25 26  2  0  0  0  0
 26 27  1  0  0  0  0
 28 27  2  0  0  0  0
 29 28  1  0  0  0  0
 30 29  2  0  0  0  0
 30 31  1  0  0  0  0
 31 32  1  0  0  0  0
 32 33  2  0  0  0  0
 31 34  2  0  0  0  0
 31 35  2  0  0  0  0
 36 30  1  0  0  0  0
 37 36  2  0  0  0  0
 27 37  1  0  0  0  0
 24 38  1  0  0  0  0
 38 39  2  0  0  0  0
 39 40  1  0  0  0  0
 40 22  2  0  0  0  0
 41 40  1  0  0  0  0
  5 41  2  0  0  0  0
 38 42  1  0  0  0  0
 42 43  1  0  0  0  0
 42 44  2  0  0  0  0
 42 45  2  0  0  0  0
 23 46  1  0  0  0  0
M  END
> <RowID>
1812

> <Original_SMILES>
[Na+].[Na+].C=CS(=O)(=O)C1C=CC(=CC=1)N=NC1=C(O)C2C(N)=C(N=NC3C=CC(=CC=3)S(=O)(=O)C=C)C(=CC=2C=C1S([O-])(=O)=O)S([O-])(=O)=O

> <Canonical_QSARr>
C=CS(=O)(=O)C1C=CC(=CC=1)N=NC1C(=CC2C=C(C(N=NC3C=CC(=CC=3)S(=O)(=O)C=C)=C(N)C=2C=1O)S(O)(=O)=O)S(O)(=O)=O

> <InChI_Code_QSARr>
InChI=1S/C26H21N5O11S4/c1-3-43(33,34)18-9-5-16(6-10-18)28-30-24-20(45(37,38)39)13-15-14-21(46(40,41)42)25(26(32)22(15)23(24)27)31-29-17-7-11-19(12-8-17)44(35,36)4-2/h3-14,32H,1-2,27H2,(H,37,38,39)(H,40,41,42)

> <InChI Key_QSARr>
WYGMBYLSKDVOKF-UHFFFAOYSA-N

> <Salt_Solvent>
[Na+]

> <Salt_Solvent_ID>
110

> <Number of connected components>
3

$$$$
Molecule_1813
  Mrv2316 01072400032D          

 12 11  0  0  0  0            999 V2000
   -1.3184   -3.7125    0.0000 C   0  0  0  0  0  0  0  0  0  0  0  0
   -0.6039   -3.3000    0.0000 C   0  0  0  0  0  0  0  0  0  0  0  0
   -0.6039   -2.4750    0.0000 O   0  0  0  0  0  0  0  0  0  0  0  0
    0.1105   -2.0625    0.0000 C   0  0  0  0  0  0  0  0  0  0  0  0
    0.8250   -2.4750    0.0000 O   0  0  0  0  0  0  0  0  0  0  0  0
    0.1105   -1.2375    0.0000 C   0  0  0  0  0  0  0  0  0  0  0  0
    0.8250   -0.8250    0.0000 C   0  0  0  0  0  0  0  0  0  0  0  0
    1.5395   -1.2375    0.0000 O   0  0  0  0  0  0  0  0  0  0  0  0
    0.8250   -0.0000    0.0000 C   0  0  0  0  0  0  0  0  0  0  0  0
    0.8250    0.8250    0.0000 F   0  0  0  0  0  0  0  0  0  0  0  0
    1.6500   -0.0000    0.0000 F   0  0  0  0  0  0  0  0  0  0  0  0
    0.0000   -0.0000    0.0000 F   0  0  0  0  0  0  0  0  0  0  0  0
  1  2  1  0  0  0  0
  2  3  1  0  0  0  0
  3  4  1  0  0  0  0
  4  5  2  0  0  0  0
  4  6  1  0  0  0  0
  6  7  1  0  0  0  0
  7  8  2  0  0  0  0
  7  9  1  0  0  0  0
  9 10  1  0  0  0  0
  9 11  1  0  0  0  0
  9 12  1  0  0  0  0
M  END
> <RowID>
1813

> <Original_SMILES>
CCOC(=O)CC(=O)C(F)(F)F

> <Canonical_QSARr>
CCOC(=O)CC(=O)C(F)(F)F

> <InChI_Code_QSARr>
InChI=1S/C6H7F3O3/c1-2-12-5(11)3-4(10)6(7,8)9/h2-3H2,1H3

> <InChI Key_QSARr>
OCJKUQIPRNZDTK-UHFFFAOYSA-N

> <Salt_Solvent>


> <Salt_Solvent_ID>
0

> <Number of connected components>
1

$$$$
Molecule_1815
  Mrv2316 01072400032D          

 20 22  0  0  0  0            999 V2000
   -3.3987   -0.1009    0.0000 N   0  0  0  0  0  0  0  0  0  0  0  0
   -2.6141   -0.3558    0.0000 C   0  0  0  0  0  0  0  0  0  0  0  0
   -1.8295   -0.6108    0.0000 C   0  0  0  0  0  0  0  0  0  0  0  0
   -1.6579   -1.4177    0.0000 C   0  0  0  0  0  0  0  0  0  0  0  0
   -0.8733   -1.6727    0.0000 C   0  0  0  0  0  0  0  0  0  0  0  0
   -0.2602   -1.1207    0.0000 C   0  0  0  0  0  0  0  0  0  0  0  0
    0.5244   -1.3756    0.0000 C   0  0  0  0  0  0  0  0  0  0  0  0
    0.7793   -2.1602    0.0000 C   0  0  0  0  0  0  0  0  0  0  0  0
    1.6043   -2.1602    0.0000 C   0  0  0  0  0  0  0  0  0  0  0  0
    1.8593   -1.3756    0.0000 N   0  0  0  0  0  0  0  0  0  0  0  0
    1.1918   -0.8907    0.0000 N   0  0  0  0  0  0  0  0  0  0  0  0
    1.1918   -0.0657    0.0000 C   0  0  0  0  0  0  0  0  0  0  0  0
    1.9063    0.3468    0.0000 C   0  0  0  0  0  0  0  0  0  0  0  0
    1.9063    1.1718    0.0000 C   0  0  0  0  0  0  0  0  0  0  0  0
    1.1918    1.5843    0.0000 C   0  0  0  0  0  0  0  0  0  0  0  0
    0.4774    1.1718    0.0000 C   0  0  0  0  0  0  0  0  0  0  0  0
    0.4774    0.3468    0.0000 O   0  0  0  0  0  0  0  0  0  0  0  0
   -0.4317   -0.3137    0.0000 C   0  0  0  0  0  0  0  0  0  0  0  0
   -1.2164   -0.0587    0.0000 C   0  0  0  0  0  0  0  0  0  0  0  0
   -1.3879    0.7482    0.0000 Cl  0  0  0  0  0  0  0  0  0  0  0  0
  1  2  3  0  0  0  0
  2  3  1  0  0  0  0
  4  3  1  0  0  0  0
  5  4  2  0  0  0  0
  6  5  1  0  0  0  0
  6  7  1  0  0  0  0
  8  7  2  0  0  0  0
  9  8  1  0  0  0  0
 10  9  2  0  0  0  0
 11 10  1  0  0  0  0
  7 11  1  0  0  0  0
 11 12  1  0  0  0  0
 13 12  1  0  0  0  0
 14 13  1  0  0  0  0
 15 14  1  0  0  0  0
 16 15  1  0  0  0  0
 17 16  1  0  0  0  0
 12 17  1  0  0  0  0
 18  6  2  0  0  0  0
 19 18  1  0  0  0  0
  3 19  2  0  0  0  0
 19 20  1  0  0  0  0
M  END
> <RowID>
1815

> <Original_SMILES>
N#CC1C=CC(=CC=1Cl)C1=CC=NN1C1CCCCO1

> <Canonical_QSARr>
N#CC1C=CC(=CC=1Cl)C1=CC=NN1C1CCCCO1

> <InChI_Code_QSARr>
InChI=1S/C15H14ClN3O/c16-13-9-11(4-5-12(13)10-17)14-6-7-18-19(14)15-3-1-2-8-20-15/h4-7,9,15H,1-3,8H2

> <InChI Key_QSARr>
NLPVLRRBVJWADT-UHFFFAOYSA-N

> <Salt_Solvent>


> <Salt_Solvent_ID>
0

> <Number of connected components>
1

$$$$
Molecule_1816
  Mrv2316 01072400032D          

 13 13  0  0  0  0            999 V2000
    2.4732   -1.8087    0.0000 C   0  0  0  0  0  0  0  0  0  0  0  0
    2.4732   -0.9837    0.0000 O   0  0  0  0  0  0  0  0  0  0  0  0
    1.7587   -0.5712    0.0000 C   0  0  0  0  0  0  0  0  0  0  0  0
    1.7587    0.2538    0.0000 C   0  0  0  0  0  0  0  0  0  0  0  0
    1.0442    0.6663    0.0000 C   0  0  0  0  0  0  0  0  0  0  0  0
    1.0442    1.4913    0.0000 C   0  0  0  0  0  0  0  0  0  0  0  0
    1.0442    2.3163    0.0000 C   0  0  0  0  0  0  0  0  0  0  0  0
    1.8692    1.4913    0.0000 C   0  0  0  0  0  0  0  0  0  0  0  0
    0.2192    1.4913    0.0000 C   0  0  0  0  0  0  0  0  0  0  0  0
    0.3298    0.2538    0.0000 C   0  0  0  0  0  0  0  0  0  0  0  0
   -0.3847    0.6663    0.0000 O   0  0  0  0  0  0  0  0  0  0  0  0
    0.3298   -0.5712    0.0000 C   0  0  0  0  0  0  0  0  0  0  0  0
    1.0442   -0.9837    0.0000 C   0  0  0  0  0  0  0  0  0  0  0  0
  1  2  1  0  0  0  0
  2  3  1  0  0  0  0
  4  3  1  0  0  0  0
  5  4  2  0  0  0  0
  5  6  1  0  0  0  0
  6  7  1  0  0  0  0
  6  8  1  0  0  0  0
  6  9  1  0  0  0  0
 10  5  1  0  0  0  0
 10 11  1  0  0  0  0
 12 10  2  0  0  0  0
 13 12  1  0  0  0  0
  3 13  2  0  0  0  0
M  END
> <RowID>
1816

> <Original_SMILES>
COC1C=C(C(O)=CC=1)C(C)(C)C

> <Canonical_QSARr>
COC1C=C(C(O)=CC=1)C(C)(C)C

> <InChI_Code_QSARr>
InChI=1S/C11H16O2/c1-11(2,3)9-7-8(13-4)5-6-10(9)12/h5-7,12H,1-4H3

> <InChI Key_QSARr>
MRBKEAMVRSLQPH-UHFFFAOYSA-N

> <Salt_Solvent>


> <Salt_Solvent_ID>
0

> <Number of connected components>
1

$$$$
Molecule_1817
  Mrv2316 01072400032D          

  6  5  0  0  0  0            999 V2000
    1.2375    0.7145    0.0000 C   0  0  0  0  0  0  0  0  0  0  0  0
    0.8250    1.4289    0.0000 O   0  0  0  0  0  0  0  0  0  0  0  0
    2.0625    0.7145    0.0000 O   0  0  0  0  0  0  0  0  0  0  0  0
    0.8250   -0.0000    0.0000 C   0  0  0  0  0  0  0  0  0  0  0  0
    1.2375   -0.7145    0.0000 O   0  0  0  0  0  0  0  0  0  0  0  0
    0.0000   -0.0000    0.0000 O   0  0  0  0  0  0  0  0  0  0  0  0
  1  2  1  0  0  0  0
  1  3  2  0  0  0  0
  1  4  1  0  0  0  0
  4  5  1  0  0  0  0
  4  6  2  0  0  0  0
M  END
> <RowID>
1817

> <Original_SMILES>
[Ce+3].[Ce+3].[O-]C(=O)C([O-])=O.[O-]C(=O)C([O-])=O.[O-]C(=O)C([O-])=O

> <Canonical_QSARr>
OC(=O)C(O)=O

> <InChI_Code_QSARr>
InChI=1S/C2H2O4/c3-1(4)2(5)6/h(H,3,4)(H,5,6)

> <InChI Key_QSARr>
MUBZPKHOEPUJKR-UHFFFAOYSA-N

> <Salt_Solvent>
[Ce+3]

> <Salt_Solvent_ID>
580

> <Number of connected components>
5

$$$$
Molecule_1818
  Mrv2316 01072400032D          

  7  6  0  0  0  0            999 V2000
    1.2375    2.1434    0.0000 C   0  0  0  0  0  0  0  0  0  0  0  0
    0.8250    1.4289    0.0000 C   0  0  0  0  0  0  0  0  0  0  0  0
   -0.0000    1.4289    0.0000 C   0  0  0  0  0  0  0  0  0  0  0  0
    1.2375    0.7145    0.0000 O   0  0  0  0  0  0  0  0  0  0  0  0
    0.8250   -0.0000    0.0000 C   0  0  0  0  0  0  0  0  0  0  0  0
    1.2375   -0.7145    0.0000 C   0  0  0  0  0  0  0  0  0  0  0  0
    0.0000   -0.0000    0.0000 O   0  0  0  0  0  0  0  0  0  0  0  0
  1  2  1  0  0  0  0
  2  3  1  0  0  0  0
  2  4  1  0  0  0  0
  4  5  1  0  0  0  0
  5  6  1  0  0  0  0
  5  7  2  0  0  0  0
M  END
> <RowID>
1818

> <Original_SMILES>
CC(C)OC(C)=O

> <Canonical_QSARr>
CC(C)OC(C)=O

> <InChI_Code_QSARr>
InChI=1S/C5H10O2/c1-4(2)7-5(3)6/h4H,1-3H3

> <InChI Key_QSARr>
JMMWKPVZQRWMSS-UHFFFAOYSA-N

> <Salt_Solvent>


> <Salt_Solvent_ID>
0

> <Number of connected components>
1

$$$$
Molecule_1819
  Mrv2316 01072400032D          

  2  1  0  0  0  0            999 V2000
    0.8250    0.0000    0.0000 C   0  0  0  0  0  0  0  0  0  0  0  0
    0.0000    0.0000    0.0000 O   0  0  0  0  0  0  0  0  0  0  0  0
  1  2  1  0  0  0  0
M  END
> <RowID>
1819

> <Original_SMILES>
CO

> <Canonical_QSARr>
CO

> <InChI_Code_QSARr>
InChI=1S/CH4O/c1-2/h2H,1H3

> <InChI Key_QSARr>
OKKJLVBELUTLKV-UHFFFAOYSA-N

> <Salt_Solvent>


> <Salt_Solvent_ID>
0

> <Number of connected components>
1

$$$$
Molecule_1820
  Mrv2316 01072400032D          

 10 10  0  0  0  0            999 V2000
    0.7145   -2.0625    0.0000 C   0  0  0  0  0  0  0  0  0  0  0  0
    0.7145   -1.2375    0.0000 C   0  0  0  0  0  0  0  0  0  0  0  0
    1.4289   -0.8250    0.0000 C   0  0  0  0  0  0  0  0  0  0  0  0
    1.4289   -0.0000    0.0000 C   0  0  0  0  0  0  0  0  0  0  0  0
    0.7145    0.4125    0.0000 C   0  0  0  0  0  0  0  0  0  0  0  0
    0.7145    1.2375    0.0000 C   0  0  0  0  0  0  0  0  0  0  0  0
   -0.0000    1.6500    0.0000 C   0  0  0  0  0  0  0  0  0  0  0  0
    1.4289    1.6500    0.0000 C   0  0  0  0  0  0  0  0  0  0  0  0
   -0.0000   -0.0000    0.0000 C   0  0  0  0  0  0  0  0  0  0  0  0
   -0.0000   -0.8250    0.0000 C   0  0  0  0  0  0  0  0  0  0  0  0
  1  2  1  0  0  0  0
  3  2  1  0  0  0  0
  4  3  1  0  0  0  0
  5  4  1  0  0  0  0
  5  6  1  0  0  0  0
  6  7  1  0  0  0  0
  6  8  2  0  0  0  0
  9  5  1  0  0  0  0
 10  9  1  0  0  0  0
  2 10  2  0  0  0  0
M  END
> <RowID>
1820

> <Original_SMILES>
CC1CCC(CC=1)C(C)=C

> <Canonical_QSARr>
CC1CCC(CC=1)C(C)=C

> <InChI_Code_QSARr>
InChI=1S/C10H16/c1-8(2)10-6-4-9(3)5-7-10/h4,10H,1,5-7H2,2-3H3

> <InChI Key_QSARr>
XMGQYMWWDOXHJM-UHFFFAOYSA-N

> <Salt_Solvent>


> <Salt_Solvent_ID>
0

> <Number of connected components>
1

$$$$
Molecule_1821
  Mrv2316 01072400032D          

 24 25  0  0  0  0            999 V2000
   -5.7158   -7.9062    0.0000 C   0  0  0  0  0  0  0  0  0  0  0  0
   -5.0013   -7.4937    0.0000 C   0  0  0  0  0  0  0  0  0  0  0  0
   -4.2868   -7.9062    0.0000 C   0  0  0  0  0  0  0  0  0  0  0  0
   -3.5724   -7.4937    0.0000 C   0  0  0  0  0  0  0  0  0  0  0  0
   -2.8579   -7.9062    0.0000 C   0  0  0  0  0  0  0  0  0  0  0  0
   -2.1434   -7.4937    0.0000 C   0  0  0  0  0  0  0  0  0  0  0  0
   -1.4290   -7.9062    0.0000 C   0  0  0  0  0  0  0  0  0  0  0  0
   -0.7145   -7.4937    0.0000 C   0  0  0  0  0  0  0  0  0  0  0  0
   -0.0000   -7.9062    0.0000 O   0  0  0  0  0  0  0  0  0  0  0  0
    0.7145   -7.4937    0.0000 C   0  0  0  0  0  0  0  0  0  0  0  0
    1.4289   -7.9062    0.0000 C   0  0  0  0  0  0  0  0  0  0  0  0
    2.1434   -7.4937    0.0000 C   0  0  0  0  0  0  0  0  0  0  0  0
    2.8579   -7.9062    0.0000 O   0  0  0  0  0  0  0  0  0  0  0  0
    2.1434   -6.6687    0.0000 C   0  0  0  0  0  0  0  0  0  0  0  0
    2.8579   -6.2562    0.0000 C   0  0  0  0  0  0  0  0  0  0  0  0
    2.8579   -5.4312    0.0000 O   0  0  0  0  0  0  0  0  0  0  0  0
    3.5723   -6.6687    0.0000 C   0  0  0  0  0  0  0  0  0  0  0  0
    3.5723   -7.4937    0.0000 C   0  0  0  0  0  0  0  0  0  0  0  0
    4.2868   -7.9062    0.0000 C   0  0  0  0  0  0  0  0  0  0  0  0
    5.0013   -7.4937    0.0000 C   0  0  0  0  0  0  0  0  0  0  0  0
    5.0013   -6.6687    0.0000 C   0  0  0  0  0  0  0  0  0  0  0  0
    4.2868   -6.2562    0.0000 C   0  0  0  0  0  0  0  0  0  0  0  0
    1.4289   -6.2562    0.0000 C   0  0  0  0  0  0  0  0  0  0  0  0
    0.7145   -6.6687    0.0000 C   0  0  0  0  0  0  0  0  0  0  0  0
  1  2  1  0  0  0  0
  2  3  1  0  0  0  0
  3  4  1  0  0  0  0
  4  5  1  0  0  0  0
  5  6  1  0  0  0  0
  6  7  1  0  0  0  0
  7  8  1  0  0  0  0
  8  9  1  0  0  0  0
  9 10  1  0  0  0  0
 11 10  2  0  0  0  0
 12 11  1  0  0  0  0
 12 13  1  0  0  0  0
 14 12  2  0  0  0  0
 14 15  1  0  0  0  0
 15 16  2  0  0  0  0
 15 17  1  0  0  0  0
 18 17  1  0  0  0  0
 19 18  2  0  0  0  0
 20 19  1  0  0  0  0
 21 20  2  0  0  0  0
 22 21  1  0  0  0  0
 17 22  2  0  0  0  0
 23 14  1  0  0  0  0
 24 23  2  0  0  0  0
 10 24  1  0  0  0  0
M  END
> <RowID>
1821

> <Original_SMILES>
CCCCCCCCOC1=CC(O)=C(C=C1)C(=O)C1C=CC=CC=1

> <Canonical_QSARr>
CCCCCCCCOC1=CC(O)=C(C=C1)C(=O)C1C=CC=CC=1

> <InChI_Code_QSARr>
InChI=1S/C21H26O3/c1-2-3-4-5-6-10-15-24-18-13-14-19(20(22)16-18)21(23)17-11-8-7-9-12-17/h7-9,11-14,16,22H,2-6,10,15H2,1H3

> <InChI Key_QSARr>
QUAMTGJKVDWJEQ-UHFFFAOYSA-N

> <Salt_Solvent>


> <Salt_Solvent_ID>
0

> <Number of connected components>
1

$$$$
Molecule_1822
  Mrv2316 01072400032D          

  4  3  0  0  0  0            999 V2000
    2.0625   -0.7145    0.0000 C   0  0  0  0  0  0  0  0  0  0  0  0
    1.2375   -0.7145    0.0000 C   0  0  0  0  0  0  0  0  0  0  0  0
    0.8250   -0.0000    0.0000 C   0  0  0  0  0  0  0  0  0  0  0  0
    0.0000   -0.0000    0.0000 C   0  0  0  0  0  0  0  0  0  0  0  0
  1  2  2  0  0  0  0
  2  3  1  0  0  0  0
  3  4  2  0  0  0  0
M  END
> <RowID>
1822

> <Original_SMILES>
C=CC=C

> <Canonical_QSARr>
C=CC=C

> <InChI_Code_QSARr>
InChI=1S/C4H6/c1-3-4-2/h3-4H,1-2H2

> <InChI Key_QSARr>
KAKZBPTYRLMSJV-UHFFFAOYSA-N

> <Salt_Solvent>


> <Salt_Solvent_ID>
0

> <Number of connected components>
1

$$$$
Molecule_1823
  Mrv2316 01072400032D          

 14 16  0  0  0  0            999 V2000
    0.8518   -3.3085    0.0000 C   0  0  0  0  0  0  0  0  0  0  0  0
    0.8517   -2.4835    0.0000 N   0  3  0  0  0  0  0  0  0  0  0  0
    0.8517   -1.6585    0.0000 C   0  0  0  0  0  0  0  0  0  0  0  0
    0.1163   -2.0322    0.0000 C   0  0  0  0  0  0  0  0  0  0  0  0
    0.5657   -1.2419    0.0000 C   0  0  0  0  0  0  0  0  0  0  0  0
    0.5657   -0.4945    0.0000 C   0  0  0  0  0  0  0  0  0  0  0  0
    1.3012   -0.1208    0.0000 C   0  0  0  0  0  0  0  0  0  0  0  0
    2.0368   -0.4945    0.0000 C   0  0  0  0  0  0  0  0  0  0  0  0
    2.0368   -1.2419    0.0000 C   0  0  0  0  0  0  0  0  0  0  0  0
    1.3012   -1.6156    0.0000 C   0  0  0  0  0  0  0  0  0  0  0  0
    1.5873   -2.0322    0.0000 C   0  0  0  0  0  0  0  0  0  0  0  0
    0.8517   -0.9111    0.0000 C   0  0  0  0  0  0  0  0  0  0  0  0
    1.6767   -2.4835    0.0000 C   0  0  0  0  0  0  0  0  0  0  0  0
    0.0267   -2.4835    0.0000 C   0  0  0  0  0  0  0  0  0  0  0  0
  1  2  1  0  0  0  0
  2  3  1  0  0  0  0
  4  3  1  0  0  0  0
  5  4  1  0  0  0  0
 12  7  1  0  0  0  0
  6  7  1  0  0  0  0
  7  8  1  0  0  0  0
 11  3  1  0  0  0  0
  9 10  1  0  0  0  0
 10  5  1  0  0  0  0
  9 11  1  0  0  0  0
  8  9  1  0  0  0  0
  5  6  1  0  0  0  0
  3 12  1  0  0  0  0
  2 13  1  0  0  0  0
  2 14  1  0  0  0  0
M  CHG  1   2   1
M  END
> <RowID>
1823

> <Original_SMILES>
C[N+](C)(C)C12CC3CC(C1)CC(C2)C3.C[N+](C)(C)C12CC3CC(C1)CC(C2)C3.[O-]S([O-])(=O)=O

> <Canonical_QSARr>
C[N+](C)(C)C12CC3CC(C1)CC(C2)C3

> <InChI_Code_QSARr>
InChI=1S/C13H24N/c1-14(2,3)13-7-10-4-11(8-13)6-12(5-10)9-13/h10-12H,4-9H2,1-3H3/q+1

> <InChI Key_QSARr>
KKXBPUAYFJQMLN-UHFFFAOYSA-N

> <Salt_Solvent>
[O-]S(=O)(=O)[O-]

> <Salt_Solvent_ID>
2042

> <Number of connected components>
3

$$$$
Molecule_1825
  Mrv2316 01072400032D          

 15 14  0  0  0  0            999 V2000
    4.7586    3.5724    0.0000 C   0  0  0  0  0  0  0  0  0  0  0  0
    5.4730    3.9849    0.0000 C   0  0  0  0  0  0  0  0  0  0  0  0
    6.1875    3.5724    0.0000 C   0  0  0  0  0  0  0  0  0  0  0  0
    6.9020    3.9849    0.0000 C   0  0  0  0  0  0  0  0  0  0  0  0
    7.6164    3.5724    0.0000 C   0  0  0  0  0  0  0  0  0  0  0  0
    8.3309    3.9849    0.0000 C   0  0  0  0  0  0  0  0  0  0  0  0
    9.0454    3.5724    0.0000 C   0  0  0  0  0  0  0  0  0  0  0  0
    9.7599    3.9849    0.0000 C   0  0  0  0  0  0  0  0  0  0  0  0
   10.4743    3.5724    0.0000 C   0  0  0  0  0  0  0  0  0  0  0  0
   11.1888    3.9849    0.0000 C   0  0  0  0  0  0  0  0  0  0  0  0
   11.9033    3.5724    0.0000 C   0  0  0  0  0  0  0  0  0  0  0  0
   12.6177    3.9849    0.0000 C   0  0  0  0  0  0  0  0  0  0  0  0
   12.6177    4.8099    0.0000 O   0  0  0  0  0  0  0  0  0  0  0  0
   13.3322    3.5724    0.0000 O   0  0  0  0  0  0  0  0  0  0  0  0
   14.0467    3.9849    0.0000 C   0  0  0  0  0  0  0  0  0  0  0  0
  1  2  1  0  0  0  0
  2  3  1  0  0  0  0
  3  4  1  0  0  0  0
  4  5  1  0  0  0  0
  5  6  1  0  0  0  0
  6  7  1  0  0  0  0
  7  8  1  0  0  0  0
  8  9  1  0  0  0  0
  9 10  1  0  0  0  0
 10 11  1  0  0  0  0
 11 12  1  0  0  0  0
 12 13  2  0  0  0  0
 12 14  1  0  0  0  0
 14 15  1  0  0  0  0
M  END
> <RowID>
1825

> <Original_SMILES>
CCCCCCCCCCCC(=O)OC

> <Canonical_QSARr>
CCCCCCCCCCCC(=O)OC

> <InChI_Code_QSARr>
InChI=1S/C13H26O2/c1-3-4-5-6-7-8-9-10-11-12-13(14)15-2/h3-12H2,1-2H3

> <InChI Key_QSARr>
UQDUPQYQJKYHQI-UHFFFAOYSA-N

> <Salt_Solvent>


> <Salt_Solvent_ID>
0

> <Number of connected components>
1

$$$$
Molecule_1826
  Mrv2316 01072400032D          

 58 61  0  0  0  0            999 V2000
   -8.3889    0.8321    0.0000 O   0  0  0  0  0  0  0  0  0  0  0  0
   -7.6744    0.4196    0.0000 S   0  0  0  0  0  0  0  0  0  0  0  0
   -8.0869   -0.2949    0.0000 O   0  0  0  0  0  0  0  0  0  0  0  0
   -7.2619    1.1341    0.0000 O   0  0  0  0  0  0  0  0  0  0  0  0
   -6.9599    0.0071    0.0000 O   0  0  0  0  0  0  0  0  0  0  0  0
   -6.2455    0.4196    0.0000 C   0  0  0  0  0  0  0  0  0  0  0  0
   -5.5310    0.0071    0.0000 C   0  0  0  0  0  0  0  0  0  0  0  0
   -4.8165    0.4196    0.0000 S   0  0  0  0  0  0  0  0  0  0  0  0
   -4.1020    0.8321    0.0000 C   0  0  0  0  0  0  0  0  0  0  0  0
   -3.3876    0.4196    0.0000 C   0  0  0  0  0  0  0  0  0  0  0  0
   -2.6731    0.8321    0.0000 C   0  0  0  0  0  0  0  0  0  0  0  0
   -1.9586    0.4196    0.0000 N   0  0  0  0  0  0  0  0  0  0  0  0
   -1.2442    0.8321    0.0000 N   0  0  0  0  0  0  0  0  0  0  0  0
   -0.5297    0.4196    0.0000 C   0  0  0  0  0  0  0  0  0  0  0  0
   -0.5297   -0.4054    0.0000 C   0  0  0  0  0  0  0  0  0  0  0  0
   -1.2442   -0.8179    0.0000 S   0  0  0  0  0  0  0  0  0  0  0  0
   -1.9586   -1.2304    0.0000 O   0  0  0  0  0  0  0  0  0  0  0  0
   -0.8317   -1.5324    0.0000 O   0  0  0  0  0  0  0  0  0  0  0  0
   -1.6567   -0.1034    0.0000 O   0  0  0  0  0  0  0  0  0  0  0  0
    0.1848   -0.8179    0.0000 C   0  0  0  0  0  0  0  0  0  0  0  0
    0.8992   -0.4054    0.0000 C   0  0  0  0  0  0  0  0  0  0  0  0
    0.8992    0.4196    0.0000 C   0  0  0  0  0  0  0  0  0  0  0  0
    1.6137    0.8321    0.0000 C   0  0  0  0  0  0  0  0  0  0  0  0
    2.3282    0.4196    0.0000 C   0  0  0  0  0  0  0  0  0  0  0  0
    2.3282   -0.4054    0.0000 C   0  0  0  0  0  0  0  0  0  0  0  0
    1.6137   -0.8179    0.0000 C   0  0  0  0  0  0  0  0  0  0  0  0
    3.0427   -0.8179    0.0000 S   0  0  0  0  0  0  0  0  0  0  0  0
    3.7571   -1.2304    0.0000 O   0  0  0  0  0  0  0  0  0  0  0  0
    2.6302   -1.5324    0.0000 O   0  0  0  0  0  0  0  0  0  0  0  0
    3.4552   -0.1034    0.0000 O   0  0  0  0  0  0  0  0  0  0  0  0
    3.0427    0.8321    0.0000 N   0  0  0  0  0  0  0  0  0  0  0  0
    3.7571    0.4196    0.0000 N   0  0  0  0  0  0  0  0  0  0  0  0
    4.4716    0.8321    0.0000 C   0  0  0  0  0  0  0  0  0  0  0  0
    5.1861    0.4196    0.0000 C   0  0  0  0  0  0  0  0  0  0  0  0
    5.9005    0.8321    0.0000 C   0  0  0  0  0  0  0  0  0  0  0  0
    5.9005    1.6571    0.0000 C   0  0  0  0  0  0  0  0  0  0  0  0
    6.6150    2.0696    0.0000 S   0  0  0  0  0  0  0  0  0  0  0  0
    7.3295    2.4821    0.0000 C   0  0  0  0  0  0  0  0  0  0  0  0
    7.3295    3.3071    0.0000 C   0  0  0  0  0  0  0  0  0  0  0  0
    8.0440    3.7196    0.0000 O   0  0  0  0  0  0  0  0  0  0  0  0
    8.0440    4.5446    0.0000 S   0  0  0  0  0  0  0  0  0  0  0  0
    8.0440    5.3696    0.0000 O   0  0  0  0  0  0  0  0  0  0  0  0
    8.8690    4.5446    0.0000 O   0  0  0  0  0  0  0  0  0  0  0  0
    7.2190    4.5446    0.0000 O   0  0  0  0  0  0  0  0  0  0  0  0
    7.0275    1.3551    0.0000 O   0  0  0  0  0  0  0  0  0  0  0  0
    6.2025    2.7841    0.0000 O   0  0  0  0  0  0  0  0  0  0  0  0
    5.1861    2.0696    0.0000 C   0  0  0  0  0  0  0  0  0  0  0  0
    4.4716    1.6571    0.0000 C   0  0  0  0  0  0  0  0  0  0  0  0
    1.6137    1.6571    0.0000 N   0  0  0  0  0  0  0  0  0  0  0  0
    0.1848    0.8321    0.0000 C   0  0  0  0  0  0  0  0  0  0  0  0
    0.1848    1.6571    0.0000 O   0  0  0  0  0  0  0  0  0  0  0  0
   -2.6731    1.6571    0.0000 C   0  0  0  0  0  0  0  0  0  0  0  0
   -1.9586    2.0696    0.0000 O   0  0  0  0  0  0  0  0  0  0  0  0
   -1.9586    2.8946    0.0000 C   0  0  0  0  0  0  0  0  0  0  0  0
   -3.3876    2.0696    0.0000 C   0  0  0  0  0  0  0  0  0  0  0  0
   -4.1020    1.6571    0.0000 C   0  0  0  0  0  0  0  0  0  0  0  0
   -4.4040   -0.2949    0.0000 O   0  0  0  0  0  0  0  0  0  0  0  0
   -5.2290    1.1341    0.0000 O   0  0  0  0  0  0  0  0  0  0  0  0
  1  2  1  0  0  0  0
  2  3  2  0  0  0  0
  2  4  2  0  0  0  0
  2  5  1  0  0  0  0
  5  6  1  0  0  0  0
  6  7  1  0  0  0  0
  7  8  1  0  0  0  0
  8  9  1  0  0  0  0
 10  9  2  0  0  0  0
 11 10  1  0  0  0  0
 12 11  1  4  0  0  0
 12 13  2  0  0  0  0
 13 14  1  0  0  0  0
 15 14  1  0  0  0  0
 15 16  1  0  0  0  0
 16 17  1  0  0  0  0
 16 18  2  0  0  0  0
 16 19  2  0  0  0  0
 20 15  2  0  0  0  0
 21 20  1  0  0  0  0
 21 22  2  0  0  0  0
 22 23  1  0  0  0  0
 23 24  2  0  0  0  0
 24 25  1  0  0  0  0
 25 26  2  0  0  0  0
 26 21  1  0  0  0  0
 25 27  1  0  0  0  0
 27 28  1  0  0  0  0
 27 29  2  0  0  0  0
 27 30  2  0  0  0  0
 31 24  1  4  0  0  0
 31 32  2  0  0  0  0
 32 33  1  0  0  0  0
 34 33  2  0  0  0  0
 35 34  1  0  0  0  0
 36 35  2  0  0  0  0
 36 37  1  0  0  0  0
 37 38  1  0  0  0  0
 38 39  1  0  0  0  0
 39 40  1  0  0  0  0
 40 41  1  0  0  0  0
 41 42  1  0  0  0  0
 41 43  2  0  0  0  0
 41 44  2  0  0  0  0
 37 45  2  0  0  0  0
 37 46  2  0  0  0  0
 47 36  1  0  0  0  0
 48 47  2  0  0  0  0
 33 48  1  0  0  0  0
 23 49  1  0  0  0  0
 50 22  1  0  0  0  0
 14 50  2  0  0  0  0
 50 51  1  0  0  0  0
 52 11  2  0  0  0  0
 52 53  1  0  0  0  0
 53 54  1  0  0  0  0
 55 52  1  0  0  0  0
 56 55  2  0  0  0  0
  9 56  1  0  0  0  0
  8 57  2  0  0  0  0
  8 58  2  0  0  0  0
M  END
> <RowID>
1826

> <Original_SMILES>
[Na+].[Na+].[Na+].[Na+].COC1=CC=C(C=C1N=NC1=C(O)C2=C(N)C(N=NC3C=CC(=CC=3)S(=O)(=O)CCOS([O-])(=O)=O)=C(C=C2C=C1S([O-])(=O)=O)S([O-])(=O)=O)S(=O)(=O)CCOS([O-])(=O)=O

> <Canonical_QSARr>
COC1C=CC(=CC=1N=NC1C(=CC2C=C(C(N=NC3=CC=C(C=C3)S(=O)(=O)CCOS(O)(=O)=O)=C(N)C=2C=1O)S(O)(=O)=O)S(O)(=O)=O)S(=O)(=O)CCOS(O)(=O)=O

> <InChI_Code_QSARr>
InChI=1S/C27H27N5O20S6/c1-50-20-7-6-18(54(36,37)11-9-52-58(47,48)49)14-19(20)30-32-26-22(56(41,42)43)13-15-12-21(55(38,39)40)25(24(28)23(15)27(26)33)31-29-16-2-4-17(5-3-16)53(34,35)10-8-51-57(44,45)46/h2-7,12-14,33H,8-11,28H2,1H3,(H,38,39,40)(H,41,42,43)(H,44,45,46)(H,47,48,49)

> <InChI Key_QSARr>
ZUALWZZTVZJCFI-UHFFFAOYSA-N

> <Salt_Solvent>
[Na+]

> <Salt_Solvent_ID>
110

> <Number of connected components>
5

$$$$
Molecule_1827
  Mrv2316 01072400032D          

 11 12  0  0  0  0            999 V2000
    0.6255    0.9669    0.0000 C   0  0  0  0  0  0  0  0  0  0  0  0
    1.2680    0.1194    0.0000 C   0  0  0  0  0  0  0  0  0  0  0  0
    0.6056   -0.7463    0.0000 C   0  0  0  0  0  0  0  0  0  0  0  0
    1.0617    0.9444    0.0000 C   0  0  0  0  0  0  0  0  0  0  0  0
    0.3473    0.5319    0.0000 C   0  0  0  0  0  0  0  0  0  0  0  0
    0.3473   -0.2931    0.0000 C   0  0  0  0  0  0  0  0  0  0  0  0
   -0.4938   -0.5427    0.0000 O   0  0  0  0  0  0  0  0  0  0  0  0
    1.0617   -0.7056    0.0000 C   0  0  0  0  0  0  0  0  0  0  0  0
    1.2513   -1.5661    0.0000 C   0  0  0  0  0  0  0  0  0  0  0  0
    1.7762   -0.2931    0.0000 C   0  0  0  0  0  0  0  0  0  0  0  0
    1.7762    0.5319    0.0000 C   0  0  0  0  0  0  0  0  0  0  0  0
  1  2  1  0  0  0  0
  2  3  1  0  0  0  0
  4  2  1  0  0  0  0
  4  5  1  0  0  0  0
  5  6  1  0  0  0  0
  6  7  2  0  0  0  0
  6  8  1  0  0  0  0
  2  8  1  0  0  0  0
  8  9  1  0  0  0  0
  8 10  1  0  0  0  0
 10 11  1  0  0  0  0
 11  4  1  0  0  0  0
M  END
> <RowID>
1827

> <Original_SMILES>
CC1(C)C2CC(=O)C1(C)CC2

> <Canonical_QSARr>
CC1(C)C2CC(=O)C1(C)CC2

> <InChI_Code_QSARr>
InChI=1S/C10H16O/c1-9(2)7-4-5-10(9,3)8(11)6-7/h7H,4-6H2,1-3H3

> <InChI Key_QSARr>
DSSYKIVIOFKYAU-UHFFFAOYSA-N

> <Salt_Solvent>


> <Salt_Solvent_ID>
0

> <Number of connected components>
1

$$$$
Molecule_1828
  Mrv2316 01072400032D          

  9  9  0  0  0  0            999 V2000
    2.3022   -0.6875    0.0000 C   0  0  0  0  0  0  0  0  0  0  0  0
    1.5877   -0.2750    0.0000 C   0  0  0  0  0  0  0  0  0  0  0  0
    1.5877    0.5500    0.0000 C   0  0  0  0  0  0  0  0  0  0  0  0
    0.8732    0.9625    0.0000 C   0  0  0  0  0  0  0  0  0  0  0  0
    0.8732    1.7875    0.0000 C   0  0  0  0  0  0  0  0  0  0  0  0
    0.1588    0.5500    0.0000 C   0  0  0  0  0  0  0  0  0  0  0  0
   -0.5557    0.9625    0.0000 C   0  0  0  0  0  0  0  0  0  0  0  0
    0.1588   -0.2750    0.0000 C   0  0  0  0  0  0  0  0  0  0  0  0
    0.8732   -0.6875    0.0000 C   0  0  0  0  0  0  0  0  0  0  0  0
  1  2  1  0  0  0  0
  3  2  2  0  0  0  0
  4  3  1  0  0  0  0
  4  5  1  0  0  0  0
  6  4  2  0  0  0  0
  6  7  1  0  0  0  0
  8  6  1  0  0  0  0
  9  8  2  0  0  0  0
  2  9  1  0  0  0  0
M  END
> <RowID>
1828

> <Original_SMILES>
CC1=CC(C)=C(C)C=C1

> <Canonical_QSARr>
CC1=CC(C)=C(C)C=C1

> <InChI_Code_QSARr>
InChI=1S/C9H12/c1-7-4-5-8(2)9(3)6-7/h4-6H,1-3H3

> <InChI Key_QSARr>
GWHJZXXIDMPWGX-UHFFFAOYSA-N

> <Salt_Solvent>


> <Salt_Solvent_ID>
0

> <Number of connected components>
1

$$$$
Molecule_1829
  Mrv2316 01072400032D          

 30 29  0  0  0  0            999 V2000
   13.6125    7.8592    0.0000 C   0  0  0  0  0  0  0  0  0  0  0  0
   13.2000    7.1447    0.0000 C   0  0  0  0  0  0  0  0  0  0  0  0
   13.6125    6.4302    0.0000 C   0  0  0  0  0  0  0  0  0  0  0  0
   12.3750    7.1447    0.0000 C   0  0  0  0  0  0  0  0  0  0  0  0
   11.9625    6.4302    0.0000 C   0  0  0  0  0  0  0  0  0  0  0  0
   11.1375    6.4302    0.0000 C   0  0  0  0  0  0  0  0  0  0  0  0
   10.7250    5.7158    0.0000 C   0  0  0  0  0  0  0  0  0  0  0  0
   11.1375    5.0013    0.0000 C   0  0  0  0  0  0  0  0  0  0  0  0
    9.9000    5.7158    0.0000 C   0  0  0  0  0  0  0  0  0  0  0  0
    9.4875    5.0013    0.0000 C   0  0  0  0  0  0  0  0  0  0  0  0
    8.6625    5.0013    0.0000 C   0  0  0  0  0  0  0  0  0  0  0  0
    8.2500    4.2868    0.0000 C   0  0  0  0  0  0  0  0  0  0  0  0
    8.6625    3.5724    0.0000 C   0  0  0  0  0  0  0  0  0  0  0  0
    7.4250    4.2868    0.0000 C   0  0  0  0  0  0  0  0  0  0  0  0
    7.0125    3.5724    0.0000 C   0  0  0  0  0  0  0  0  0  0  0  0
    6.1875    3.5724    0.0000 C   0  0  0  0  0  0  0  0  0  0  0  0
    5.7750    2.8579    0.0000 C   0  0  0  0  0  0  0  0  0  0  0  0
    4.9500    2.8579    0.0000 C   0  0  0  0  0  0  0  0  0  0  0  0
    4.5375    3.5724    0.0000 C   0  0  0  0  0  0  0  0  0  0  0  0
    4.5375    2.1434    0.0000 C   0  0  0  0  0  0  0  0  0  0  0  0
    3.7125    2.1434    0.0000 C   0  0  0  0  0  0  0  0  0  0  0  0
    3.3000    1.4289    0.0000 C   0  0  0  0  0  0  0  0  0  0  0  0
    2.4750    1.4289    0.0000 C   0  0  0  0  0  0  0  0  0  0  0  0
    2.0625    2.1434    0.0000 C   0  0  0  0  0  0  0  0  0  0  0  0
    2.0625    0.7145    0.0000 C   0  0  0  0  0  0  0  0  0  0  0  0
    1.2375    0.7145    0.0000 C   0  0  0  0  0  0  0  0  0  0  0  0
    0.8250    0.0000    0.0000 C   0  0  0  0  0  0  0  0  0  0  0  0
    0.0000    0.0000    0.0000 C   0  0  0  0  0  0  0  0  0  0  0  0
   -0.4125   -0.7145    0.0000 C   0  0  0  0  0  0  0  0  0  0  0  0
   -0.4125    0.7145    0.0000 C   0  0  0  0  0  0  0  0  0  0  0  0
  1  2  1  0  0  0  0
  2  3  1  0  0  0  0
  2  4  2  0  0  0  0
  4  5  1  0  0  0  0
  5  6  1  0  0  0  0
  6  7  1  0  0  0  0
  7  8  1  0  0  0  0
  7  9  2  0  0  0  0
  9 10  1  4  0  0  0
 10 11  1  0  0  0  0
 11 12  1  0  0  0  0
 12 13  1  0  0  0  0
 12 14  2  0  0  0  0
 14 15  1  4  0  0  0
 15 16  1  0  0  0  0
 17 16  1  4  0  0  0
 17 18  2  0  0  0  0
 18 19  1  0  0  0  0
 18 20  1  0  0  0  0
 20 21  1  0  0  0  0
 22 21  1  4  0  0  0
 22 23  2  0  0  0  0
 23 24  1  0  0  0  0
 23 25  1  0  0  0  0
 25 26  1  0  0  0  0
 26 27  1  0  0  0  0
 27 28  2  0  0  0  0
 28 29  1  0  0  0  0
 28 30  1  0  0  0  0
M  END
> <RowID>
1829

> <Original_SMILES>
CC(C)=CCCC(C)=CCCC(C)=CCCC=C(C)CCC=C(C)CCC=C(C)C

> <Canonical_QSARr>
CC(C)=CCCC(C)=CCCC(C)=CCCC=C(C)CCC=C(C)CCC=C(C)C

> <InChI_Code_QSARr>
InChI=1S/C30H50/c1-25(2)15-11-19-29(7)23-13-21-27(5)17-9-10-18-28(6)22-14-24-30(8)20-12-16-26(3)4/h15-18,23-24H,9-14,19-22H2,1-8H3

> <InChI Key_QSARr>
YYGNTYWPHWGJRM-UHFFFAOYSA-N

> <Salt_Solvent>


> <Salt_Solvent_ID>
0

> <Number of connected components>
1

$$$$
Molecule_1830
  Mrv2316 01072400032D          

 30 29  0  0  0  0            999 V2000
   13.6125    7.8592    0.0000 C   0  0  0  0  0  0  0  0  0  0  0  0
   13.2000    7.1447    0.0000 C   0  0  0  0  0  0  0  0  0  0  0  0
   13.6125    6.4302    0.0000 C   0  0  0  0  0  0  0  0  0  0  0  0
   12.3750    7.1447    0.0000 C   0  0  0  0  0  0  0  0  0  0  0  0
   11.9625    6.4302    0.0000 C   0  0  0  0  0  0  0  0  0  0  0  0
   11.1375    6.4302    0.0000 C   0  0  0  0  0  0  0  0  0  0  0  0
   10.7250    5.7158    0.0000 C   0  0  0  0  0  0  0  0  0  0  0  0
   11.1375    5.0013    0.0000 C   0  0  0  0  0  0  0  0  0  0  0  0
    9.9000    5.7158    0.0000 C   0  0  0  0  0  0  0  0  0  0  0  0
    9.4875    5.0013    0.0000 C   0  0  0  0  0  0  0  0  0  0  0  0
    8.6625    5.0013    0.0000 C   0  0  0  0  0  0  0  0  0  0  0  0
    8.2500    4.2868    0.0000 C   0  0  0  0  0  0  0  0  0  0  0  0
    8.6625    3.5724    0.0000 C   0  0  0  0  0  0  0  0  0  0  0  0
    7.4250    4.2868    0.0000 C   0  0  0  0  0  0  0  0  0  0  0  0
    7.0125    3.5724    0.0000 C   0  0  0  0  0  0  0  0  0  0  0  0
    6.1875    3.5724    0.0000 C   0  0  0  0  0  0  0  0  0  0  0  0
    5.7750    2.8579    0.0000 C   0  0  0  0  0  0  0  0  0  0  0  0
    4.9500    2.8579    0.0000 C   0  0  0  0  0  0  0  0  0  0  0  0
    4.5375    3.5724    0.0000 C   0  0  0  0  0  0  0  0  0  0  0  0
    4.5375    2.1434    0.0000 C   0  0  0  0  0  0  0  0  0  0  0  0
    3.7125    2.1434    0.0000 C   0  0  0  0  0  0  0  0  0  0  0  0
    3.3000    1.4289    0.0000 C   0  0  0  0  0  0  0  0  0  0  0  0
    2.4750    1.4289    0.0000 C   0  0  0  0  0  0  0  0  0  0  0  0
    2.0625    2.1434    0.0000 C   0  0  0  0  0  0  0  0  0  0  0  0
    2.0625    0.7145    0.0000 C   0  0  0  0  0  0  0  0  0  0  0  0
    1.2375    0.7145    0.0000 C   0  0  0  0  0  0  0  0  0  0  0  0
    0.8250    0.0000    0.0000 C   0  0  0  0  0  0  0  0  0  0  0  0
    0.0000    0.0000    0.0000 C   0  0  0  0  0  0  0  0  0  0  0  0
   -0.4125   -0.7145    0.0000 C   0  0  0  0  0  0  0  0  0  0  0  0
   -0.4125    0.7145    0.0000 C   0  0  0  0  0  0  0  0  0  0  0  0
  1  2  1  0  0  0  0
  2  3  1  0  0  0  0
  2  4  2  0  0  0  0
  4  5  1  0  0  0  0
  5  6  1  0  0  0  0
  6  7  1  0  0  0  0
  7  8  1  0  0  0  0
  7  9  2  0  0  0  0
  9 10  1  4  0  0  0
 10 11  1  0  0  0  0
 11 12  1  0  0  0  0
 12 13  1  0  0  0  0
 12 14  2  0  0  0  0
 14 15  1  4  0  0  0
 15 16  1  0  0  0  0
 17 16  1  4  0  0  0
 17 18  2  0  0  0  0
 18 19  1  0  0  0  0
 18 20  1  0  0  0  0
 20 21  1  0  0  0  0
 22 21  1  4  0  0  0
 22 23  2  0  0  0  0
 23 24  1  0  0  0  0
 23 25  1  0  0  0  0
 25 26  1  0  0  0  0
 26 27  1  0  0  0  0
 27 28  2  0  0  0  0
 28 29  1  0  0  0  0
 28 30  1  0  0  0  0
M  END
> <RowID>
1830

> <Original_SMILES>
CC(C)=CCCC(C)=CCCC(C)=CCCC=C(C)CCC=C(C)CCC=C(C)C

> <Canonical_QSARr>
CC(C)=CCCC(C)=CCCC(C)=CCCC=C(C)CCC=C(C)CCC=C(C)C

> <InChI_Code_QSARr>
InChI=1S/C30H50/c1-25(2)15-11-19-29(7)23-13-21-27(5)17-9-10-18-28(6)22-14-24-30(8)20-12-16-26(3)4/h15-18,23-24H,9-14,19-22H2,1-8H3

> <InChI Key_QSARr>
YYGNTYWPHWGJRM-UHFFFAOYSA-N

> <Salt_Solvent>


> <Salt_Solvent_ID>
0

> <Number of connected components>
1

$$$$
Molecule_1831
  Mrv2316 01072400032D          

 19 20  0  0  0  0            999 V2000
    2.9040   -4.5398    0.0000 O   0  0  0  0  0  0  0  0  0  0  0  0
    2.0835   -4.6260    0.0000 C   0  0  0  0  0  0  0  0  0  0  0  0
    1.7480   -5.3797    0.0000 O   0  0  0  0  0  0  0  0  0  0  0  0
    1.5986   -3.9586    0.0000 C   0  0  0  0  0  0  0  0  0  0  0  0
    1.8535   -3.1739    0.0000 C   0  0  0  0  0  0  0  0  0  0  0  0
    1.1861   -2.6890    0.0000 C   0  0  0  0  0  0  0  0  0  0  0  0
    1.1861   -1.8640    0.0000 O   0  0  0  0  0  0  0  0  0  0  0  0
    0.5187   -3.1739    0.0000 N   0  0  0  0  0  0  0  0  0  0  0  0
   -0.2660   -2.9190    0.0000 C   0  0  0  0  0  0  0  0  0  0  0  0
   -0.4375   -2.1120    0.0000 C   0  0  0  0  0  0  0  0  0  0  0  0
   -1.2221   -1.8571    0.0000 C   0  0  0  0  0  0  0  0  0  0  0  0
   -1.8352   -2.4091    0.0000 C   0  0  0  0  0  0  0  0  0  0  0  0
   -2.6198   -2.1542    0.0000 S   0  0  0  0  0  0  0  0  0  0  0  0
   -3.4045   -1.8992    0.0000 O   0  0  0  0  0  0  0  0  0  0  0  0
   -2.3649   -1.3696    0.0000 O   0  0  0  0  0  0  0  0  0  0  0  0
   -2.8748   -2.9388    0.0000 O   0  0  0  0  0  0  0  0  0  0  0  0
   -1.6637   -3.2161    0.0000 C   0  0  0  0  0  0  0  0  0  0  0  0
   -0.8791   -3.4710    0.0000 C   0  0  0  0  0  0  0  0  0  0  0  0
    0.7736   -3.9586    0.0000 N   0  0  0  0  0  0  0  0  0  0  0  0
  1  2  1  0  0  0  0
  2  3  2  0  0  0  0
  2  4  1  0  0  0  0
  5  4  1  0  0  0  0
  6  5  1  0  0  0  0
  6  7  2  0  0  0  0
  8  6  1  0  0  0  0
  8  9  1  0  0  0  0
 10  9  1  0  0  0  0
 11 10  2  0  0  0  0
 12 11  1  0  0  0  0
 12 13  1  0  0  0  0
 13 14  1  0  0  0  0
 13 15  2  0  0  0  0
 13 16  2  0  0  0  0
 17 12  2  0  0  0  0
 18 17  1  0  0  0  0
  9 18  2  0  0  0  0
 19  8  1  0  0  0  0
  4 19  2  0  0  0  0
M  END
> <RowID>
1831

> <Original_SMILES>
OC(=O)C1CC(=O)N(N=1)C1C=CC(=CC=1)S(O)(=O)=O

> <Canonical_QSARr>
OC(=O)C1CC(=O)N(N=1)C1C=CC(=CC=1)S(O)(=O)=O

> <InChI_Code_QSARr>
InChI=1S/C10H8N2O6S/c13-9-5-8(10(14)15)11-12(9)6-1-3-7(4-2-6)19(16,17)18/h1-4H,5H2,(H,14,15)(H,16,17,18)

> <InChI Key_QSARr>
TYCNXOAPQGVAQU-UHFFFAOYSA-N

> <Salt_Solvent>


> <Salt_Solvent_ID>
0

> <Number of connected components>
1

$$$$
Molecule_1832
  Mrv2316 01072400032D          

 11 12  0  0  0  0            999 V2000
    0.0407   -0.1459    0.0000 F   0  0  0  0  0  0  0  0  0  0  0  0
    0.6538   -0.6979    0.0000 C   0  0  0  0  0  0  0  0  0  0  0  0
    0.0407   -1.2500    0.0000 F   0  0  0  0  0  0  0  0  0  0  0  0
    1.1387   -0.0305    0.0000 O   0  0  0  0  0  0  0  0  0  0  0  0
    1.9233   -0.2854    0.0000 C   0  0  0  0  0  0  0  0  0  0  0  0
    2.6378    0.1271    0.0000 C   0  0  0  0  0  0  0  0  0  0  0  0
    3.3523   -0.2854    0.0000 C   0  0  0  0  0  0  0  0  0  0  0  0
    3.3523   -1.1104    0.0000 C   0  0  0  0  0  0  0  0  0  0  0  0
    2.6378   -1.5229    0.0000 C   0  0  0  0  0  0  0  0  0  0  0  0
    1.9233   -1.1104    0.0000 C   0  0  0  0  0  0  0  0  0  0  0  0
    1.1387   -1.3654    0.0000 O   0  0  0  0  0  0  0  0  0  0  0  0
  1  2  1  0  0  0  0
  2  3  1  0  0  0  0
  4  2  1  0  0  0  0
  5  4  1  0  0  0  0
  5  6  2  0  0  0  0
  6  7  1  0  0  0  0
  7  8  2  0  0  0  0
  8  9  1  0  0  0  0
  9 10  2  0  0  0  0
 10  5  1  0  0  0  0
 11 10  1  0  0  0  0
  2 11  1  0  0  0  0
M  END
> <RowID>
1832

> <Original_SMILES>
FC1(F)OC2=CC=CC=C2O1

> <Canonical_QSARr>
FC1(F)OC2=CC=CC=C2O1

> <InChI_Code_QSARr>
InChI=1S/C7H4F2O2/c8-7(9)10-5-3-1-2-4-6(5)11-7/h1-4H

> <InChI Key_QSARr>
DGCOGZQDAXUUBY-UHFFFAOYSA-N

> <Salt_Solvent>


> <Salt_Solvent_ID>
0

> <Number of connected components>
1

$$$$
Molecule_1833
  Mrv2316 01072400032D          

  2  1  0  0  0  0            999 V2000
    0.8250    0.0000    0.0000 C   0  0  0  0  0  0  0  0  0  0  0  0
    0.0000    0.0000    0.0000 C   0  0  0  0  0  0  0  0  0  0  0  0
  1  2  1  0  0  0  0
M  END
> <RowID>
1833

> <Original_SMILES>
CC

> <Canonical_QSARr>
CC

> <InChI_Code_QSARr>
InChI=1S/C2H6/c1-2/h1-2H3

> <InChI Key_QSARr>
OTMSDBZUPAUEDD-UHFFFAOYSA-N

> <Salt_Solvent>


> <Salt_Solvent_ID>
0

> <Number of connected components>
1

$$$$
Molecule_1834
  Mrv2316 01072400032D          

  8  8  0  0  0  0            999 V2000
    0.7145   -1.2375    0.0000 C   0  0  0  0  0  0  0  0  0  0  0  0
    0.7145   -0.4125    0.0000 C   0  0  0  0  0  0  0  0  0  0  0  0
    1.4289    0.0000    0.0000 C   0  0  0  0  0  0  0  0  0  0  0  0
    1.4289    0.8250    0.0000 C   0  0  0  0  0  0  0  0  0  0  0  0
    0.7145    1.2375    0.0000 C   0  0  0  0  0  0  0  0  0  0  0  0
    0.7145    2.0625    0.0000 Cl  0  0  0  0  0  0  0  0  0  0  0  0
    0.0000    0.8250    0.0000 C   0  0  0  0  0  0  0  0  0  0  0  0
    0.0000    0.0000    0.0000 C   0  0  0  0  0  0  0  0  0  0  0  0
  1  2  1  0  0  0  0
  3  2  2  0  0  0  0
  4  3  1  0  0  0  0
  5  4  2  0  0  0  0
  5  6  1  0  0  0  0
  7  5  1  0  0  0  0
  8  7  2  0  0  0  0
  2  8  1  0  0  0  0
M  END
> <RowID>
1834

> <Original_SMILES>
CC1=CC=C(Cl)C=C1

> <Canonical_QSARr>
CC1=CC=C(Cl)C=C1

> <InChI_Code_QSARr>
InChI=1S/C7H7Cl/c1-6-2-4-7(8)5-3-6/h2-5H,1H3

> <InChI Key_QSARr>
NPDACUSDTOMAMK-UHFFFAOYSA-N

> <Salt_Solvent>


> <Salt_Solvent_ID>
0

> <Number of connected components>
1

$$$$
Molecule_1835
  Mrv2316 01072400032D          

 27 26  0  0  0  0            999 V2000
    8.4710    6.5408    0.0000 O   0  0  0  0  0  0  0  0  0  0  0  0
    9.1855    6.1283    0.0000 S   0  0  0  0  0  0  0  0  0  0  0  0
    8.7730    5.4138    0.0000 O   0  0  0  0  0  0  0  0  0  0  0  0
    9.5980    6.8428    0.0000 O   0  0  0  0  0  0  0  0  0  0  0  0
    9.9000    5.7158    0.0000 C   0  0  0  0  0  0  0  0  0  0  0  0
   10.6145    6.1283    0.0000 C   0  0  0  0  0  0  0  0  0  0  0  0
   11.3289    5.7158    0.0000 C   0  0  0  0  0  0  0  0  0  0  0  0
   12.0434    6.1283    0.0000 O   0  0  0  0  0  0  0  0  0  0  0  0
   12.7579    5.7158    0.0000 C   0  0  0  0  0  0  0  0  0  0  0  0
   13.4723    6.1283    0.0000 C   0  0  0  0  0  0  0  0  0  0  0  0
   14.1868    5.7158    0.0000 N   0  0  0  0  0  0  0  0  0  0  0  0
   14.9013    6.1283    0.0000 C   0  0  0  0  0  0  0  0  0  0  0  0
   15.6157    5.7158    0.0000 C   0  0  0  0  0  0  0  0  0  0  0  0
   16.3302    6.1283    0.0000 C   0  0  0  0  0  0  0  0  0  0  0  0
   17.0447    5.7158    0.0000 C   0  0  0  0  0  0  0  0  0  0  0  0
   17.7592    6.1283    0.0000 C   0  0  0  0  0  0  0  0  0  0  0  0
   18.4736    5.7158    0.0000 C   0  0  0  0  0  0  0  0  0  0  0  0
   19.1881    6.1283    0.0000 C   0  0  0  0  0  0  0  0  0  0  0  0
   19.9026    5.7158    0.0000 C   0  0  0  0  0  0  0  0  0  0  0  0
   20.6170    6.1283    0.0000 C   0  0  0  0  0  0  0  0  0  0  0  0
   21.3315    5.7158    0.0000 C   0  0  0  0  0  0  0  0  0  0  0  0
   22.0460    6.1283    0.0000 C   0  0  0  0  0  0  0  0  0  0  0  0
   14.9013    6.9533    0.0000 O   0  0  0  0  0  0  0  0  0  0  0  0
   11.3289    4.8908    0.0000 O   0  0  0  0  0  0  0  0  0  0  0  0
    9.9000    4.8908    0.0000 C   0  0  0  0  0  0  0  0  0  0  0  0
   10.6145    4.4783    0.0000 O   0  0  0  0  0  0  0  0  0  0  0  0
    9.1855    4.4783    0.0000 O   0  0  0  0  0  0  0  0  0  0  0  0
  1  2  1  0  0  0  0
  2  3  2  0  0  0  0
  2  4  2  0  0  0  0
  2  5  1  0  0  0  0
  5  6  1  0  0  0  0
  6  7  1  0  0  0  0
  7  8  1  0  0  0  0
  8  9  1  0  0  0  0
  9 10  1  0  0  0  0
 10 11  1  0  0  0  0
 11 12  1  0  0  0  0
 12 13  1  0  0  0  0
 13 14  1  0  0  0  0
 14 15  1  0  0  0  0
 15 16  1  0  0  0  0
 16 17  1  0  0  0  0
 17 18  1  0  0  0  0
 18 19  1  0  0  0  0
 19 20  1  0  0  0  0
 20 21  1  0  0  0  0
 21 22  2  0  0  0  0
 12 23  2  0  0  0  0
  7 24  2  0  0  0  0
  5 25  1  0  0  0  0
 25 26  1  0  0  0  0
 25 27  2  0  0  0  0
M  END
> <RowID>
1835

> <Original_SMILES>
[Na+].[Na+].C=CCCCCCCCCC(=O)NCCOC(=O)CC(C([O-])=O)S([O-])(=O)=O

> <Canonical_QSARr>
C=CCCCCCCCCC(=O)NCCOC(=O)CC(C(O)=O)S(O)(=O)=O

> <InChI_Code_QSARr>
InChI=1S/C17H29NO8S/c1-2-3-4-5-6-7-8-9-10-15(19)18-11-12-26-16(20)13-14(17(21)22)27(23,24)25/h2,14H,1,3-13H2,(H,18,19)(H,21,22)(H,23,24,25)

> <InChI Key_QSARr>
LQBCFBVZKXBOIE-UHFFFAOYSA-N

> <Salt_Solvent>
[Na+]

> <Salt_Solvent_ID>
110

> <Number of connected components>
3

$$$$
Molecule_1836
  Mrv2316 01072400032D          

 66 65  0  0  0  0            999 V2000
    5.8046   -7.4763    0.0000 C   0  0  0  0  0  0  0  0  0  0  0  0
    6.5191   -7.0638    0.0000 C   0  0  0  0  0  0  0  0  0  0  0  0
    6.5191   -6.2388    0.0000 C   0  0  0  0  0  0  0  0  0  0  0  0
    7.3441   -6.2388    0.0000 C   0  0  0  0  0  0  0  0  0  0  0  0
    7.7566   -6.9533    0.0000 O   0  0  0  0  0  0  0  0  0  0  0  0
    8.5816   -6.9533    0.0000 C   0  0  0  0  0  0  0  0  0  0  0  0
    8.9941   -6.2388    0.0000 O   0  0  0  0  0  0  0  0  0  0  0  0
    8.9941   -7.6677    0.0000 C   0  0  0  0  0  0  0  0  0  0  0  0
    9.8191   -7.6677    0.0000 C   0  0  0  0  0  0  0  0  0  0  0  0
   10.2316   -8.3822    0.0000 C   0  0  0  0  0  0  0  0  0  0  0  0
   11.0566   -8.3822    0.0000 C   0  0  0  0  0  0  0  0  0  0  0  0
   11.4691   -9.0967    0.0000 C   0  0  0  0  0  0  0  0  0  0  0  0
   12.2941   -9.0967    0.0000 C   0  0  0  0  0  0  0  0  0  0  0  0
   12.7066   -9.8111    0.0000 C   0  0  0  0  0  0  0  0  0  0  0  0
   13.5316   -9.8111    0.0000 C   0  0  0  0  0  0  0  0  0  0  0  0
   13.9441  -10.5256    0.0000 C   0  0  0  0  0  0  0  0  0  0  0  0
   14.7691  -10.5256    0.0000 C   0  0  0  0  0  0  0  0  0  0  0  0
   15.1816  -11.2401    0.0000 C   0  0  0  0  0  0  0  0  0  0  0  0
   16.0066  -11.2401    0.0000 C   0  0  0  0  0  0  0  0  0  0  0  0
   16.4191  -11.9546    0.0000 C   0  0  0  0  0  0  0  0  0  0  0  0
   17.2441  -11.9546    0.0000 C   0  0  0  0  0  0  0  0  0  0  0  0
   17.6566  -12.6690    0.0000 C   0  0  0  0  0  0  0  0  0  0  0  0
   18.4816  -12.6690    0.0000 C   0  0  0  0  0  0  0  0  0  0  0  0
   17.2441  -13.3835    0.0000 C   0  0  0  0  0  0  0  0  0  0  0  0
    5.6941   -6.2388    0.0000 C   0  0  0  0  0  0  0  0  0  0  0  0
    5.2816   -5.5243    0.0000 O   0  0  0  0  0  0  0  0  0  0  0  0
    4.4566   -5.5243    0.0000 C   0  0  0  0  0  0  0  0  0  0  0  0
    4.0441   -6.2388    0.0000 O   0  0  0  0  0  0  0  0  0  0  0  0
    4.0441   -4.8098    0.0000 C   0  0  0  0  0  0  0  0  0  0  0  0
    3.2191   -4.8098    0.0000 C   0  0  0  0  0  0  0  0  0  0  0  0
    2.8066   -4.0954    0.0000 C   0  0  0  0  0  0  0  0  0  0  0  0
    1.9816   -4.0954    0.0000 C   0  0  0  0  0  0  0  0  0  0  0  0
    1.5691   -3.3809    0.0000 C   0  0  0  0  0  0  0  0  0  0  0  0
    0.7441   -3.3809    0.0000 C   0  0  0  0  0  0  0  0  0  0  0  0
    0.3316   -2.6664    0.0000 C   0  0  0  0  0  0  0  0  0  0  0  0
   -0.4934   -2.6664    0.0000 C   0  0  0  0  0  0  0  0  0  0  0  0
   -0.9059   -1.9520    0.0000 C   0  0  0  0  0  0  0  0  0  0  0  0
   -1.7309   -1.9520    0.0000 C   0  0  0  0  0  0  0  0  0  0  0  0
   -2.1434   -1.2375    0.0000 C   0  0  0  0  0  0  0  0  0  0  0  0
   -2.9684   -1.2375    0.0000 C   0  0  0  0  0  0  0  0  0  0  0  0
   -3.3809   -0.5230    0.0000 C   0  0  0  0  0  0  0  0  0  0  0  0
   -4.2059   -0.5230    0.0000 C   0  0  0  0  0  0  0  0  0  0  0  0
   -4.6184    0.1914    0.0000 C   0  0  0  0  0  0  0  0  0  0  0  0
   -5.4434    0.1914    0.0000 C   0  0  0  0  0  0  0  0  0  0  0  0
   -4.2059    0.9059    0.0000 C   0  0  0  0  0  0  0  0  0  0  0  0
    6.5191   -5.4138    0.0000 C   0  0  0  0  0  0  0  0  0  0  0  0
    7.2336   -5.0013    0.0000 O   0  0  0  0  0  0  0  0  0  0  0  0
    7.9480   -5.4138    0.0000 C   0  0  0  0  0  0  0  0  0  0  0  0
    7.9480   -6.2388    0.0000 O   0  0  0  0  0  0  0  0  0  0  0  0
    8.6625   -5.0013    0.0000 C   0  0  0  0  0  0  0  0  0  0  0  0
    9.3770   -5.4138    0.0000 C   0  0  0  0  0  0  0  0  0  0  0  0
   10.0915   -5.0013    0.0000 C   0  0  0  0  0  0  0  0  0  0  0  0
   10.8059   -5.4138    0.0000 C   0  0  0  0  0  0  0  0  0  0  0  0
   11.5204   -5.0013    0.0000 C   0  0  0  0  0  0  0  0  0  0  0  0
   12.2349   -5.4138    0.0000 C   0  0  0  0  0  0  0  0  0  0  0  0
   12.9493   -5.0013    0.0000 C   0  0  0  0  0  0  0  0  0  0  0  0
   13.6638   -5.4138    0.0000 C   0  0  0  0  0  0  0  0  0  0  0  0
   14.3783   -5.0013    0.0000 C   0  0  0  0  0  0  0  0  0  0  0  0
   15.0927   -5.4138    0.0000 C   0  0  0  0  0  0  0  0  0  0  0  0
   15.8072   -5.0013    0.0000 C   0  0  0  0  0  0  0  0  0  0  0  0
   16.5217   -5.4138    0.0000 C   0  0  0  0  0  0  0  0  0  0  0  0
   17.2362   -5.0013    0.0000 C   0  0  0  0  0  0  0  0  0  0  0  0
   17.9506   -5.4138    0.0000 C   0  0  0  0  0  0  0  0  0  0  0  0
   18.6651   -5.0013    0.0000 C   0  0  0  0  0  0  0  0  0  0  0  0
   18.6651   -4.1763    0.0000 C   0  0  0  0  0  0  0  0  0  0  0  0
   19.3796   -5.4138    0.0000 C   0  0  0  0  0  0  0  0  0  0  0  0
  1  2  1  0  0  0  0
  2  3  1  0  0  0  0
  3  4  1  0  0  0  0
  4  5  1  0  0  0  0
  5  6  1  0  0  0  0
  6  7  2  0  0  0  0
  6  8  1  0  0  0  0
  8  9  1  0  0  0  0
  9 10  1  0  0  0  0
 10 11  1  0  0  0  0
 11 12  1  0  0  0  0
 12 13  1  0  0  0  0
 13 14  1  0  0  0  0
 14 15  1  0  0  0  0
 15 16  1  0  0  0  0
 16 17  1  0  0  0  0
 17 18  1  0  0  0  0
 18 19  1  0  0  0  0
 19 20  1  0  0  0  0
 20 21  1  0  0  0  0
 21 22  1  0  0  0  0
 22 23  1  0  0  0  0
 22 24  1  0  0  0  0
  3 25  1  0  0  0  0
 25 26  1  0  0  0  0
 26 27  1  0  0  0  0
 27 28  2  0  0  0  0
 27 29  1  0  0  0  0
 29 30  1  0  0  0  0
 30 31  1  0  0  0  0
 31 32  1  0  0  0  0
 32 33  1  0  0  0  0
 33 34  1  0  0  0  0
 34 35  1  0  0  0  0
 35 36  1  0  0  0  0
 36 37  1  0  0  0  0
 37 38  1  0  0  0  0
 38 39  1  0  0  0  0
 39 40  1  0  0  0  0
 40 41  1  0  0  0  0
 41 42  1  0  0  0  0
 42 43  1  0  0  0  0
 43 44  1  0  0  0  0
 43 45  1  0  0  0  0
  3 46  1  0  0  0  0
 46 47  1  0  0  0  0
 47 48  1  0  0  0  0
 48 49  2  0  0  0  0
 48 50  1  0  0  0  0
 50 51  1  0  0  0  0
 51 52  1  0  0  0  0
 52 53  1  0  0  0  0
 53 54  1  0  0  0  0
 54 55  1  0  0  0  0
 55 56  1  0  0  0  0
 56 57  1  0  0  0  0
 57 58  1  0  0  0  0
 58 59  1  0  0  0  0
 59 60  1  0  0  0  0
 60 61  1  0  0  0  0
 61 62  1  0  0  0  0
 62 63  1  0  0  0  0
 63 64  1  0  0  0  0
 64 65  1  0  0  0  0
 64 66  1  0  0  0  0
M  END
> <RowID>
1836

> <Original_SMILES>
CCC(COC(=O)CCCCCCCCCCCCCCC(C)C)(COC(=O)CCCCCCCCCCCCCCC(C)C)COC(=O)CCCCCCCCCCCCCCC(C)C

> <Canonical_QSARr>
CCC(COC(=O)CCCCCCCCCCCCCCC(C)C)(COC(=O)CCCCCCCCCCCCCCC(C)C)COC(=O)CCCCCCCCCCCCCCC(C)C

> <InChI_Code_QSARr>
InChI=1S/C60H116O6/c1-8-60(51-64-57(61)48-42-36-30-24-18-12-9-15-21-27-33-39-45-54(2)3,52-65-58(62)49-43-37-31-25-19-13-10-16-22-28-34-40-46-55(4)5)53-66-59(63)50-44-38-32-26-20-14-11-17-23-29-35-41-47-56(6)7/h54-56H,8-53H2,1-7H3

> <InChI Key_QSARr>
RKJGFHYCZPZJPE-UHFFFAOYSA-N

> <Salt_Solvent>


> <Salt_Solvent_ID>
0

> <Number of connected components>
1

$$$$
Molecule_1838
  Mrv2316 01072400032D          

 66 71  0  0  0  0            999 V2000
  -11.5831  -21.0375    0.0000 O   0  0  0  0  0  0  0  0  0  0  0  0
  -10.8686  -20.6250    0.0000 S   0  0  0  0  0  0  0  0  0  0  0  0
  -10.4561  -21.3395    0.0000 O   0  0  0  0  0  0  0  0  0  0  0  0
  -11.2811  -19.9105    0.0000 O   0  0  0  0  0  0  0  0  0  0  0  0
  -10.1542  -20.2125    0.0000 C   0  0  0  0  0  0  0  0  0  0  0  0
   -9.4397  -20.6250    0.0000 C   0  0  0  0  0  0  0  0  0  0  0  0
   -8.7252  -20.2125    0.0000 C   0  0  0  0  0  0  0  0  0  0  0  0
   -8.7252  -19.3875    0.0000 C   0  0  0  0  0  0  0  0  0  0  0  0
   -9.4397  -18.9750    0.0000 C   0  0  0  0  0  0  0  0  0  0  0  0
   -9.4397  -18.1500    0.0000 N   0  0  0  0  0  0  0  0  0  0  0  0
   -8.7252  -17.7375    0.0000 C   0  0  0  0  0  0  0  0  0  0  0  0
   -8.0108  -18.1500    0.0000 N   0  0  0  0  0  0  0  0  0  0  0  0
   -7.2963  -17.7375    0.0000 C   0  0  0  0  0  0  0  0  0  0  0  0
   -6.5818  -18.1500    0.0000 N   0  0  0  0  0  0  0  0  0  0  0  0
   -5.8673  -17.7375    0.0000 C   0  0  0  0  0  0  0  0  0  0  0  0
   -5.8673  -16.9125    0.0000 C   0  0  0  0  0  0  0  0  0  0  0  0
   -5.1529  -16.5000    0.0000 O   0  0  0  0  0  0  0  0  0  0  0  0
   -7.2963  -16.9125    0.0000 N   0  0  0  0  0  0  0  0  0  0  0  0
   -8.0108  -16.5000    0.0000 C   0  0  0  0  0  0  0  0  0  0  0  0
   -8.0108  -15.6750    0.0000 N   0  0  0  0  0  0  0  0  0  0  0  0
   -8.7252  -15.2625    0.0000 C   0  0  0  0  0  0  0  0  0  0  0  0
   -8.7252  -14.4375    0.0000 C   0  0  0  0  0  0  0  0  0  0  0  0
   -9.4397  -14.0250    0.0000 C   0  0  0  0  0  0  0  0  0  0  0  0
  -10.1542  -14.4375    0.0000 C   0  0  0  0  0  0  0  0  0  0  0  0
  -10.8686  -14.0250    0.0000 C   0  0  0  0  0  0  0  0  0  0  0  0
  -10.8686  -13.2000    0.0000 C   0  0  0  0  0  0  0  0  0  0  0  0
  -11.5831  -12.7875    0.0000 C   0  0  0  0  0  0  0  0  0  0  0  0
  -11.5831  -11.9625    0.0000 C   0  0  0  0  0  0  0  0  0  0  0  0
  -10.8686  -11.5500    0.0000 S   0  0  0  0  0  0  0  0  0  0  0  0
  -10.1542  -11.1375    0.0000 O   0  0  0  0  0  0  0  0  0  0  0  0
  -11.2811  -10.8355    0.0000 O   0  0  0  0  0  0  0  0  0  0  0  0
  -10.4561  -12.2645    0.0000 O   0  0  0  0  0  0  0  0  0  0  0  0
  -12.2976  -11.5500    0.0000 C   0  0  0  0  0  0  0  0  0  0  0  0
  -13.0121  -11.9625    0.0000 C   0  0  0  0  0  0  0  0  0  0  0  0
  -13.7265  -11.5500    0.0000 N   0  0  0  0  0  0  0  0  0  0  0  0
  -13.7265  -10.7250    0.0000 C   0  0  0  0  0  0  0  0  0  0  0  0
  -13.0121  -10.3125    0.0000 N   0  0  0  0  0  0  0  0  0  0  0  0
  -13.0121   -9.4875    0.0000 C   0  0  0  0  0  0  0  0  0  0  0  0
  -12.2976   -9.0750    0.0000 N   0  0  0  0  0  0  0  0  0  0  0  0
  -12.2976   -8.2500    0.0000 C   0  0  0  0  0  0  0  0  0  0  0  0
  -13.0121   -7.8375    0.0000 C   0  0  0  0  0  0  0  0  0  0  0  0
  -13.0121   -7.0125    0.0000 O   0  0  0  0  0  0  0  0  0  0  0  0
  -13.7265   -9.0750    0.0000 N   0  0  0  0  0  0  0  0  0  0  0  0
  -14.4410   -9.4875    0.0000 C   0  0  0  0  0  0  0  0  0  0  0  0
  -15.1555   -9.0750    0.0000 N   0  0  0  0  0  0  0  0  0  0  0  0
  -15.1555   -8.2500    0.0000 C   0  0  0  0  0  0  0  0  0  0  0  0
  -14.4410   -7.8375    0.0000 C   0  0  0  0  0  0  0  0  0  0  0  0
  -14.4410   -7.0125    0.0000 C   0  0  0  0  0  0  0  0  0  0  0  0
  -15.1555   -6.6000    0.0000 C   0  0  0  0  0  0  0  0  0  0  0  0
  -15.8699   -7.0125    0.0000 C   0  0  0  0  0  0  0  0  0  0  0  0
  -16.5844   -6.6000    0.0000 S   0  0  0  0  0  0  0  0  0  0  0  0
  -17.2989   -6.1875    0.0000 O   0  0  0  0  0  0  0  0  0  0  0  0
  -16.1719   -5.8855    0.0000 O   0  0  0  0  0  0  0  0  0  0  0  0
  -16.9969   -7.3145    0.0000 O   0  0  0  0  0  0  0  0  0  0  0  0
  -15.8699   -7.8375    0.0000 C   0  0  0  0  0  0  0  0  0  0  0  0
  -14.4410  -10.3125    0.0000 N   0  0  0  0  0  0  0  0  0  0  0  0
  -13.0121  -12.7875    0.0000 C   0  0  0  0  0  0  0  0  0  0  0  0
  -12.2976  -13.2000    0.0000 C   0  0  0  0  0  0  0  0  0  0  0  0
  -10.1542  -15.2625    0.0000 C   0  0  0  0  0  0  0  0  0  0  0  0
  -10.8686  -15.6750    0.0000 S   0  0  0  0  0  0  0  0  0  0  0  0
  -11.5831  -16.0875    0.0000 O   0  0  0  0  0  0  0  0  0  0  0  0
  -10.4561  -16.3895    0.0000 O   0  0  0  0  0  0  0  0  0  0  0  0
  -11.2811  -14.9605    0.0000 O   0  0  0  0  0  0  0  0  0  0  0  0
   -9.4397  -15.6750    0.0000 C   0  0  0  0  0  0  0  0  0  0  0  0
   -8.7252  -16.9125    0.0000 N   0  0  0  0  0  0  0  0  0  0  0  0
  -10.1542  -19.3875    0.0000 C   0  0  0  0  0  0  0  0  0  0  0  0
  1  2  1  0  0  0  0
  2  3  2  0  0  0  0
  2  4  2  0  0  0  0
  2  5  1  0  0  0  0
  6  5  1  0  0  0  0
  7  6  2  0  0  0  0
  8  7  1  0  0  0  0
  9  8  2  0  0  0  0
  9 10  1  0  0  0  0
 10 11  1  0  0  0  0
 12 11  1  0  0  0  0
 13 12  2  0  0  0  0
 13 14  1  0  0  0  0
 14 15  1  0  0  0  0
 15 16  1  0  0  0  0
 16 17  1  0  0  0  0
 18 13  1  0  0  0  0
 19 18  2  0  0  0  0
 19 20  1  0  0  0  0
 20 21  1  0  0  0  0
 22 21  1  0  0  0  0
 23 22  2  0  0  0  0
 24 23  1  0  0  0  0
 25 24  1  4  0  0  0
 25 26  2  0  0  0  0
 26 27  1  0  0  0  0
 28 27  2  0  0  0  0
 28 29  1  0  0  0  0
 29 30  1  0  0  0  0
 29 31  2  0  0  0  0
 29 32  2  0  0  0  0
 33 28  1  0  0  0  0
 34 33  2  0  0  0  0
 34 35  1  0  0  0  0
 35 36  1  0  0  0  0
 37 36  2  0  0  0  0
 38 37  1  0  0  0  0
 38 39  1  0  0  0  0
 39 40  1  0  0  0  0
 40 41  1  0  0  0  0
 41 42  1  0  0  0  0
 43 38  2  0  0  0  0
 44 43  1  0  0  0  0
 44 45  1  0  0  0  0
 45 46  1  0  0  0  0
 47 46  2  0  0  0  0
 48 47  1  0  0  0  0
 49 48  2  0  0  0  0
 50 49  1  0  0  0  0
 50 51  1  0  0  0  0
 51 52  1  0  0  0  0
 51 53  2  0  0  0  0
 51 54  2  0  0  0  0
 55 50  2  0  0  0  0
 46 55  1  0  0  0  0
 56 44  2  0  0  0  0
 36 56  1  0  0  0  0
 57 34  1  0  0  0  0
 58 57  2  0  0  0  0
 27 58  1  0  0  0  0
 59 24  2  0  0  0  0
 59 60  1  0  0  0  0
 60 61  1  0  0  0  0
 60 62  2  0  0  0  0
 60 63  2  0  0  0  0
 64 59  1  0  0  0  0
 21 64  2  0  0  0  0
 65 19  1  0  0  0  0
 11 65  2  0  0  0  0
 66  9  1  0  0  0  0
  5 66  2  0  0  0  0
M  END
> <RowID>
1838

> <Original_SMILES>
[Na+].[Na+].[Na+].[Na+].[Na+].[Na+].[Na+].[Na+].[Na+].[Na+].[Na+].[Na+].[Na+].[Na+].[Na+].[Na+].[O-]S(=O)(=O)C1C=C(C=CC=1C=CC1C=CC(=CC=1S([O-])(=O)=O)NC1=NC(NC2=CC(=CC=C2)S([O-])(=O)=O)=NC(NCCO)=N1)NC1=NC(NC2=CC(=CC=C2)S([O-])(=O)=O)=NC(NCCO)=N1

> <Canonical_QSARr>
OS(=O)(=O)C1C=C(C=CC=1C=CC1C=CC(=CC=1S(O)(=O)=O)NC1N=C(NC2C=C(C=CC=2)S(O)(=O)=O)N=C(NCCO)N=1)NC1N=C(NC2C=C(C=CC=2)S(O)(=O)=O)N=C(NCCO)N=1

> <InChI_Code_QSARr>
InChI=1S/C36H36N12O14S4/c49-15-13-37-31-43-33(39-23-3-1-5-27(17-23)63(51,52)53)47-35(45-31)41-25-11-9-21(29(19-25)65(57,58)59)7-8-22-10-12-26(20-30(22)66(60,61)62)42-36-46-32(38-14-16-50)44-34(48-36)40-24-4-2-6-28(18-24)64(54,55)56/h1-12,17-20,49-50H,13-16H2,(H,51,52,53)(H,54,55,56)(H,57,58,59)(H,60,61,62)(H3,37,39,41,43,45,47)(H3,38,40,42,44,46,48)

> <InChI Key_QSARr>
BCSZQTDMXPAYQX-UHFFFAOYSA-N

> <Salt_Solvent>
[Na+]

> <Salt_Solvent_ID>
110

> <Number of connected components>
17

$$$$
Molecule_1839
  Mrv2316 01072400032D          

  8  8  0  0  0  0            999 V2000
    1.2503    2.4750    0.0000 O   0  0  0  0  0  0  0  0  0  0  0  0
    0.5359    2.0625    0.0000 C   0  0  0  0  0  0  0  0  0  0  0  0
    0.5359    1.2375    0.0000 C   0  0  0  0  0  0  0  0  0  0  0  0
   -0.1786    0.8250    0.0000 C   0  0  0  0  0  0  0  0  0  0  0  0
   -0.1786   -0.0000    0.0000 C   0  0  0  0  0  0  0  0  0  0  0  0
    0.5359   -0.4125    0.0000 C   0  0  0  0  0  0  0  0  0  0  0  0
    1.2503    0.0000    0.0000 C   0  0  0  0  0  0  0  0  0  0  0  0
    1.2503    0.8250    0.0000 C   0  0  0  0  0  0  0  0  0  0  0  0
  1  2  1  0  0  0  0
  2  3  1  0  0  0  0
  4  3  1  0  0  0  0
  5  4  2  0  0  0  0
  6  5  1  0  0  0  0
  7  6  2  0  0  0  0
  8  7  1  0  0  0  0
  3  8  2  0  0  0  0
M  END
> <RowID>
1839

> <Original_SMILES>
OCC1C=CC=CC=1

> <Canonical_QSARr>
OCC1C=CC=CC=1

> <InChI_Code_QSARr>
InChI=1S/C7H8O/c8-6-7-4-2-1-3-5-7/h1-5,8H,6H2

> <InChI Key_QSARr>
WVDDGKGOMKODPV-UHFFFAOYSA-N

> <Salt_Solvent>


> <Salt_Solvent_ID>
0

> <Number of connected components>
1

$$$$
Molecule_1840
  Mrv2316 01072400032D          

 18 17  0  0  0  0            999 V2000
    7.9480    5.4138    0.0000 C   0  0  0  0  0  0  0  0  0  0  0  0
    8.6625    5.0013    0.0000 C   0  0  0  0  0  0  0  0  0  0  0  0
    9.3770    5.4138    0.0000 C   0  0  0  0  0  0  0  0  0  0  0  0
   10.0914    5.0013    0.0000 C   0  0  0  0  0  0  0  0  0  0  0  0
   10.8059    5.4138    0.0000 C   0  0  0  0  0  0  0  0  0  0  0  0
   11.5204    5.0013    0.0000 C   0  0  0  0  0  0  0  0  0  0  0  0
   12.2349    5.4138    0.0000 C   0  0  0  0  0  0  0  0  0  0  0  0
   12.9493    5.0013    0.0000 C   0  0  0  0  0  0  0  0  0  0  0  0
   12.9493    4.1763    0.0000 O   0  0  0  0  0  0  0  0  0  0  0  0
   13.6638    5.4138    0.0000 O   0  0  0  0  0  0  0  0  0  0  0  0
   14.3783    5.0013    0.0000 C   0  0  0  0  0  0  0  0  0  0  0  0
   15.0927    5.4138    0.0000 C   0  0  0  0  0  0  0  0  0  0  0  0
   15.8072    5.0013    0.0000 C   0  0  0  0  0  0  0  0  0  0  0  0
   16.5217    5.4138    0.0000 C   0  0  0  0  0  0  0  0  0  0  0  0
   17.2362    5.0013    0.0000 C   0  0  0  0  0  0  0  0  0  0  0  0
   17.9506    5.4138    0.0000 C   0  0  0  0  0  0  0  0  0  0  0  0
   18.6651    5.0013    0.0000 C   0  0  0  0  0  0  0  0  0  0  0  0
   19.3796    5.4138    0.0000 C   0  0  0  0  0  0  0  0  0  0  0  0
  1  2  1  0  0  0  0
  2  3  1  0  0  0  0
  3  4  1  0  0  0  0
  4  5  1  0  0  0  0
  5  6  1  0  0  0  0
  6  7  1  0  0  0  0
  7  8  1  0  0  0  0
  8  9  2  0  0  0  0
  8 10  1  0  0  0  0
 10 11  1  0  0  0  0
 11 12  1  0  0  0  0
 12 13  1  0  0  0  0
 13 14  1  0  0  0  0
 14 15  1  0  0  0  0
 15 16  1  0  0  0  0
 16 17  1  0  0  0  0
 17 18  1  0  0  0  0
M  END
> <RowID>
1840

> <Original_SMILES>
CCCCCCCC(=O)OCCCCCCCC

> <Canonical_QSARr>
CCCCCCCC(=O)OCCCCCCCC

> <InChI_Code_QSARr>
InChI=1S/C16H32O2/c1-3-5-7-9-11-13-15-18-16(17)14-12-10-8-6-4-2/h3-15H2,1-2H3

> <InChI Key_QSARr>
DJNTZVRUYMHBTD-UHFFFAOYSA-N

> <Salt_Solvent>


> <Salt_Solvent_ID>
0

> <Number of connected components>
1

$$$$
Molecule_1841
  Mrv2316 01072400032D          

 32 33  0  0  0  0            999 V2000
   -0.1503  -14.8409    0.0000 C   0  0  0  0  0  0  0  0  0  0  0  0
    0.6747  -14.8409    0.0000 O   0  0  0  0  0  0  0  0  0  0  0  0
    1.0872  -14.1264    0.0000 C   0  0  0  0  0  0  0  0  0  0  0  0
    0.6747  -13.4119    0.0000 O   0  0  0  0  0  0  0  0  0  0  0  0
    1.9122  -14.1264    0.0000 C   0  0  0  0  0  0  0  0  0  0  0  0
    2.3247  -13.4119    0.0000 C   0  0  0  0  0  0  0  0  0  0  0  0
    3.1497  -13.4119    0.0000 N   0  0  0  0  0  0  0  0  0  0  0  0
    3.5622  -14.1264    0.0000 C   0  0  0  0  0  0  0  0  0  0  0  0
    4.3872  -14.1264    0.0000 C   0  0  0  0  0  0  0  0  0  0  0  0
    4.7997  -14.8409    0.0000 C   0  0  0  0  0  0  0  0  0  0  0  0
    4.3872  -15.5553    0.0000 O   0  0  0  0  0  0  0  0  0  0  0  0
    5.6247  -14.8409    0.0000 O   0  0  0  0  0  0  0  0  0  0  0  0
    6.0372  -15.5553    0.0000 C   0  0  0  0  0  0  0  0  0  0  0  0
    3.5622  -12.6975    0.0000 C   0  0  0  0  0  0  0  0  0  0  0  0
    4.3872  -12.6975    0.0000 C   0  0  0  0  0  0  0  0  0  0  0  0
    4.7997  -11.9830    0.0000 C   0  0  0  0  0  0  0  0  0  0  0  0
    4.3872  -11.2685    0.0000 C   0  0  0  0  0  0  0  0  0  0  0  0
    4.7997  -10.5540    0.0000 N   0  0  0  0  0  0  0  0  0  0  0  0
    5.6247  -10.5540    0.0000 N   0  0  0  0  0  0  0  0  0  0  0  0
    6.0372   -9.8396    0.0000 C   0  0  0  0  0  0  0  0  0  0  0  0
    6.8622   -9.8396    0.0000 C   0  0  0  0  0  0  0  0  0  0  0  0
    7.2747  -10.5540    0.0000 Cl  0  0  0  0  0  0  0  0  0  0  0  0
    7.2747   -9.1251    0.0000 C   0  0  0  0  0  0  0  0  0  0  0  0
    6.8622   -8.4106    0.0000 C   0  0  0  0  0  0  0  0  0  0  0  0
    7.2747   -7.6962    0.0000 N   0  3  0  0  0  0  0  0  0  0  0  0
    6.8622   -6.9817    0.0000 O   0  5  0  0  0  0  0  0  0  0  0  0
    8.0997   -7.6962    0.0000 O   0  0  0  0  0  0  0  0  0  0  0  0
    6.0372   -8.4106    0.0000 C   0  0  0  0  0  0  0  0  0  0  0  0
    5.6247   -9.1251    0.0000 C   0  0  0  0  0  0  0  0  0  0  0  0
    4.7997   -9.1251    0.0000 Br  0  0  0  0  0  0  0  0  0  0  0  0
    3.5622  -11.2685    0.0000 C   0  0  0  0  0  0  0  0  0  0  0  0
    3.1497  -11.9830    0.0000 C   0  0  0  0  0  0  0  0  0  0  0  0
  1  2  1  0  0  0  0
  2  3  1  0  0  0  0
  3  4  2  0  0  0  0
  3  5  1  0  0  0  0
  5  6  1  0  0  0  0
  6  7  1  0  0  0  0
  7  8  1  0  0  0  0
  8  9  1  0  0  0  0
  9 10  1  0  0  0  0
 10 11  2  0  0  0  0
 10 12  1  0  0  0  0
 12 13  1  0  0  0  0
  7 14  1  0  0  0  0
 15 14  1  0  0  0  0
 16 15  2  0  0  0  0
 17 16  1  0  0  0  0
 18 17  1  4  0  0  0
 18 19  2  0  0  0  0
 19 20  1  0  0  0  0
 21 20  2  0  0  0  0
 21 22  1  0  0  0  0
 23 21  1  0  0  0  0
 24 23  2  0  0  0  0
 24 25  1  0  0  0  0
 25 26  1  0  0  0  0
 25 27  2  0  0  0  0
 28 24  1  0  0  0  0
 29 28  2  0  0  0  0
 20 29  1  0  0  0  0
 29 30  1  0  0  0  0
 31 17  2  0  0  0  0
 32 31  1  0  0  0  0
 14 32  2  0  0  0  0
M  CHG  2  25   1  26  -1
M  END
> <RowID>
1841

> <Original_SMILES>
COC(=O)CCN(CCC(=O)OC)C1C=CC(=CC=1)N=NC1=C(Cl)C=C(C=C1Br)[N+]([O-])=O

> <Canonical_QSARr>
COC(=O)CCN(CCC(=O)OC)C1C=CC(=CC=1)N=NC1=C(Cl)C=C(C=C1Br)[N+]([O-])=O

> <InChI_Code_QSARr>
InChI=1S/C20H20BrClN4O6/c1-31-18(27)7-9-25(10-8-19(28)32-2)14-5-3-13(4-6-14)23-24-20-16(21)11-15(26(29)30)12-17(20)22/h3-6,11-12H,7-10H2,1-2H3

> <InChI Key_QSARr>
SGXLDQRCIYZKPS-UHFFFAOYSA-N

> <Salt_Solvent>


> <Salt_Solvent_ID>
0

> <Number of connected components>
1

$$$$
Molecule_1842
  Mrv2316 01072400032D          

 30 33  0  0  0  0            999 V2000
    6.2873   -3.6300    0.0000 O   0  0  0  0  0  0  0  0  0  0  0  0
    5.5729   -4.0425    0.0000 C   0  0  0  0  0  0  0  0  0  0  0  0
    4.8584   -3.6300    0.0000 C   0  0  0  0  0  0  0  0  0  0  0  0
    4.8584   -2.8050    0.0000 C   0  0  0  0  0  0  0  0  0  0  0  0
    5.5729   -2.3925    0.0000 N   0  0  0  0  0  0  0  0  0  0  0  0
    5.5729   -1.5675    0.0000 C   0  0  0  0  0  0  0  0  0  0  0  0
    6.2873   -1.1550    0.0000 C   0  0  0  0  0  0  0  0  0  0  0  0
    7.0018   -1.5675    0.0000 C   0  0  0  0  0  0  0  0  0  0  0  0
    7.0018   -2.3925    0.0000 O   0  0  0  0  0  0  0  0  0  0  0  0
    7.7163   -1.1550    0.0000 C   0  0  0  0  0  0  0  0  0  0  0  0
    7.7163   -0.3300    0.0000 C   0  0  0  0  0  0  0  0  0  0  0  0
    8.4307    0.0825    0.0000 O   0  0  0  0  0  0  0  0  0  0  0  0
    7.0018    0.0825    0.0000 C   0  0  0  0  0  0  0  0  0  0  0  0
    6.2873   -0.3300    0.0000 C   0  0  0  0  0  0  0  0  0  0  0  0
    4.8584   -1.1550    0.0000 N   0  0  0  0  0  0  0  0  0  0  0  0
    4.1439   -1.5675    0.0000 C   0  0  0  0  0  0  0  0  0  0  0  0
    3.4294   -1.1550    0.0000 C   0  0  0  0  0  0  0  0  0  0  0  0
    3.4294   -0.3300    0.0000 C   0  0  0  0  0  0  0  0  0  0  0  0
    4.1439    0.0825    0.0000 O   0  0  0  0  0  0  0  0  0  0  0  0
    2.7150    0.0825    0.0000 C   0  0  0  0  0  0  0  0  0  0  0  0
    2.0005   -0.3300    0.0000 C   0  0  0  0  0  0  0  0  0  0  0  0
    1.2860    0.0825    0.0000 O   0  0  0  0  0  0  0  0  0  0  0  0
    2.0005   -1.1550    0.0000 C   0  0  0  0  0  0  0  0  0  0  0  0
    2.7150   -1.5675    0.0000 C   0  0  0  0  0  0  0  0  0  0  0  0
    4.1439   -2.3925    0.0000 N   0  0  0  0  0  0  0  0  0  0  0  0
    4.1439   -4.0425    0.0000 C   0  0  0  0  0  0  0  0  0  0  0  0
    4.1439   -4.8675    0.0000 C   0  0  0  0  0  0  0  0  0  0  0  0
    4.8584   -5.2800    0.0000 C   0  0  0  0  0  0  0  0  0  0  0  0
    4.8584   -6.1050    0.0000 O   0  0  0  0  0  0  0  0  0  0  0  0
    5.5729   -4.8675    0.0000 C   0  0  0  0  0  0  0  0  0  0  0  0
  1  2  2  0  0  0  0
  3  2  1  0  0  0  0
  3  4  1  0  0  0  0
  5  4  1  0  0  0  0
  6  5  1  0  0  0  0
  6  7  1  0  0  0  0
  8  7  1  0  0  0  0
  8  9  2  0  0  0  0
 10  8  1  0  0  0  0
 11 10  1  0  0  0  0
 11 12  2  0  0  0  0
 13 11  1  0  0  0  0
 14 13  2  0  0  0  0
  7 14  1  0  0  0  0
 15  6  2  0  0  0  0
 16 15  1  0  0  0  0
 16 17  2  0  0  0  0
 18 17  1  0  0  0  0
 18 19  2  0  0  0  0
 20 18  1  0  0  0  0
 21 20  1  0  0  0  0
 21 22  2  0  0  0  0
 23 21  1  0  0  0  0
 24 23  2  0  0  0  0
 17 24  1  0  0  0  0
 25 16  1  0  0  0  0
  4 25  2  0  0  0  0
 26  3  1  0  0  0  0
 27 26  2  0  0  0  0
 28 27  1  0  0  0  0
 28 29  2  0  0  0  0
 30 28  1  0  0  0  0
  2 30  1  0  0  0  0
M  END
> <RowID>
1842

> <Original_SMILES>
OC1=CC(=O)C=CC1=C1NC(NC(N1)=C1C=CC(=O)C=C1O)=C1C=CC(=O)C=C1O

> <Canonical_QSARr>
O=C1CC(=O)C=CC1=C1N=C(NC(=N1)C1C=CC(=O)CC1=O)C1C=CC(=O)CC1=O

> <InChI_Code_QSARr>
InChI=1S/C21H15N3O6/c25-10-1-4-13(16(28)7-10)19-22-20(14-5-2-11(26)8-17(14)29)24-21(23-19)15-6-3-12(27)9-18(15)30/h1-6,13-14H,7-9H2,(H,22,23,24)

> <InChI Key_QSARr>
ZEXKRNWFDXZXCG-UHFFFAOYSA-N

> <Salt_Solvent>


> <Salt_Solvent_ID>
0

> <Number of connected components>
1

$$$$
Molecule_1843
  Mrv2316 01072400032D          

 24 25  0  0  0  0            999 V2000
    2.2539   -2.9219    0.0000 C   0  0  0  0  0  0  0  0  0  0  0  0
    1.4289   -2.9219    0.0000 C   0  0  0  0  0  0  0  0  0  0  0  0
    1.4289   -2.0969    0.0000 N   0  0  0  0  0  0  0  0  0  0  0  0
    2.1434   -1.6844    0.0000 C   0  0  0  0  0  0  0  0  0  0  0  0
    2.8579   -2.0969    0.0000 C   0  0  0  0  0  0  0  0  0  0  0  0
    3.5724   -1.6844    0.0000 C   0  0  0  0  0  0  0  0  0  0  0  0
    4.2868   -2.0969    0.0000 C   0  0  0  0  0  0  0  0  0  0  0  0
    5.0013   -1.6844    0.0000 C   0  0  0  0  0  0  0  0  0  0  0  0
    5.0013   -0.8594    0.0000 C   0  0  0  0  0  0  0  0  0  0  0  0
    5.7158   -0.4469    0.0000 O   0  0  0  0  0  0  0  0  0  0  0  0
    4.2868   -0.4469    0.0000 C   0  0  0  0  0  0  0  0  0  0  0  0
    4.2868    0.3781    0.0000 C   0  0  0  0  0  0  0  0  0  0  0  0
    3.5724    0.7906    0.0000 O   0  0  0  0  0  0  0  0  0  0  0  0
    3.5724   -0.8594    0.0000 C   0  0  0  0  0  0  0  0  0  0  0  0
    2.8579   -2.9219    0.0000 O   0  0  0  0  0  0  0  0  0  0  0  0
    0.7145   -1.6844    0.0000 C   0  0  0  0  0  0  0  0  0  0  0  0
   -0.0000   -2.0969    0.0000 C   0  0  0  0  0  0  0  0  0  0  0  0
   -0.7145   -1.6844    0.0000 C   0  0  0  0  0  0  0  0  0  0  0  0
   -1.4289   -2.0969    0.0000 C   0  0  0  0  0  0  0  0  0  0  0  0
   -1.4289   -2.9219    0.0000 C   0  0  0  0  0  0  0  0  0  0  0  0
   -0.7145   -3.3344    0.0000 C   0  0  0  0  0  0  0  0  0  0  0  0
   -0.0000   -2.9219    0.0000 C   0  0  0  0  0  0  0  0  0  0  0  0
    0.6039   -2.9219    0.0000 C   0  0  0  0  0  0  0  0  0  0  0  0
    1.4289   -3.7469    0.0000 C   0  0  0  0  0  0  0  0  0  0  0  0
  1  2  1  0  0  0  0
  2  3  1  0  0  0  0
  3  4  1  0  0  0  0
  4  5  1  0  0  0  0
  5  6  1  0  0  0  0
  7  6  1  0  0  0  0
  8  7  2  0  0  0  0
  9  8  1  0  0  0  0
  9 10  1  0  0  0  0
 11  9  2  0  0  0  0
 11 12  1  0  0  0  0
 12 13  1  0  0  0  0
 14 11  1  0  0  0  0
  6 14  2  0  0  0  0
  5 15  2  0  0  0  0
  3 16  1  0  0  0  0
 16 17  1  0  0  0  0
 18 17  2  0  0  0  0
 19 18  1  0  0  0  0
 20 19  2  0  0  0  0
 21 20  1  0  0  0  0
 22 21  2  0  0  0  0
 17 22  1  0  0  0  0
  2 23  1  0  0  0  0
  2 24  1  0  0  0  0
M  END
> <RowID>
1843

> <Original_SMILES>
Cl.CC(C)(C)N(CC1C=CC=CC=1)CC(=O)C1=CC(CO)=C(O)C=C1

> <Canonical_QSARr>
CC(C)(C)N(CC1C=CC=CC=1)CC(=O)C1=CC(CO)=C(O)C=C1

> <InChI_Code_QSARr>
InChI=1S/C20H25NO3/c1-20(2,3)21(12-15-7-5-4-6-8-15)13-19(24)16-9-10-18(23)17(11-16)14-22/h4-11,22-23H,12-14H2,1-3H3

> <InChI Key_QSARr>
OCLIQASIQHOWRE-UHFFFAOYSA-N

> <Salt_Solvent>
Cl

> <Salt_Solvent_ID>
170

> <Number of connected components>
2

$$$$
Molecule_1844
  Mrv2316 01072400032D          

 21 22  0  0  0  0            999 V2000
    3.7425   -0.7071    0.0000 C   0  0  0  0  0  0  0  0  0  0  0  0
    3.0280   -1.1196    0.0000 O   0  0  0  0  0  0  0  0  0  0  0  0
    2.3135   -0.7071    0.0000 C   0  0  0  0  0  0  0  0  0  0  0  0
    2.3135    0.1179    0.0000 C   0  0  0  0  0  0  0  0  0  0  0  0
    1.5991    0.5304    0.0000 C   0  0  0  0  0  0  0  0  0  0  0  0
    1.5991    1.3554    0.0000 N   0  0  0  0  0  0  0  0  0  0  0  0
    0.8846    0.1179    0.0000 C   0  0  0  0  0  0  0  0  0  0  0  0
    0.1701    0.5304    0.0000 O   0  0  0  0  0  0  0  0  0  0  0  0
   -0.5444    0.1179    0.0000 C   0  0  0  0  0  0  0  0  0  0  0  0
    0.8846   -0.7071    0.0000 C   0  0  0  0  0  0  0  0  0  0  0  0
    1.5991   -1.1196    0.0000 C   0  0  0  0  0  0  0  0  0  0  0  0
    1.5991   -1.9446    0.0000 S   0  0  0  0  0  0  0  0  0  0  0  0
    0.7741   -1.9446    0.0000 O   0  0  0  0  0  0  0  0  0  0  0  0
    2.4241   -1.9446    0.0000 O   0  0  0  0  0  0  0  0  0  0  0  0
    1.5991   -2.7696    0.0000 N   0  0  0  0  0  0  0  0  0  0  0  0
    2.3135   -3.1821    0.0000 C   0  0  0  0  0  0  0  0  0  0  0  0
    2.3135   -4.0071    0.0000 C   0  0  0  0  0  0  0  0  0  0  0  0
    3.0280   -4.4196    0.0000 C   0  0  0  0  0  0  0  0  0  0  0  0
    3.7425   -4.0071    0.0000 C   0  0  0  0  0  0  0  0  0  0  0  0
    3.7425   -3.1821    0.0000 C   0  0  0  0  0  0  0  0  0  0  0  0
    3.0280   -2.7696    0.0000 C   0  0  0  0  0  0  0  0  0  0  0  0
  1  2  1  0  0  0  0
  2  3  1  0  0  0  0
  4  3  2  0  0  0  0
  5  4  1  0  0  0  0
  5  6  1  0  0  0  0
  7  5  2  0  0  0  0
  7  8  1  0  0  0  0
  8  9  1  0  0  0  0
 10  7  1  0  0  0  0
 11 10  2  0  0  0  0
  3 11  1  0  0  0  0
 11 12  1  0  0  0  0
 12 13  2  0  0  0  0
 12 14  2  0  0  0  0
 12 15  1  0  0  0  0
 15 16  1  0  0  0  0
 17 16  1  0  0  0  0
 18 17  2  0  0  0  0
 19 18  1  0  0  0  0
 20 19  2  0  0  0  0
 21 20  1  0  0  0  0
 16 21  2  0  0  0  0
M  END
> <RowID>
1844

> <Original_SMILES>
COC1=CC(N)=C(C=C1S(=O)(=O)NC1C=CC=CC=1)OC

> <Canonical_QSARr>
COC1=CC(N)=C(C=C1S(=O)(=O)NC1C=CC=CC=1)OC

> <InChI_Code_QSARr>
InChI=1S/C14H16N2O4S/c1-19-12-9-14(13(20-2)8-11(12)15)21(17,18)16-10-6-4-3-5-7-10/h3-9,16H,15H2,1-2H3

> <InChI Key_QSARr>
NFYQAEPHDGXJSY-UHFFFAOYSA-N

> <Salt_Solvent>


> <Salt_Solvent_ID>
0

> <Number of connected components>
1

$$$$
Molecule_1845
  Mrv2316 01072400032D          

  9  8  0  0  0  0            999 V2000
    1.7605    1.8414    0.0000 C   0  0  0  0  0  0  0  0  0  0  0  0
    2.4750    1.4289    0.0000 C   0  0  0  0  0  0  0  0  0  0  0  0
    2.4750    0.6039    0.0000 C   0  0  0  0  0  0  0  0  0  0  0  0
    3.1895    1.8414    0.0000 C   0  0  0  0  0  0  0  0  0  0  0  0
    3.1895    2.6664    0.0000 O   0  0  0  0  0  0  0  0  0  0  0  0
    3.9039    1.4289    0.0000 O   0  0  0  0  0  0  0  0  0  0  0  0
    4.6184    1.8414    0.0000 C   0  0  0  0  0  0  0  0  0  0  0  0
    5.3329    1.4289    0.0000 C   0  0  0  0  0  0  0  0  0  0  0  0
    6.0474    1.8414    0.0000 C   0  0  0  0  0  0  0  0  0  0  0  0
  1  2  1  0  0  0  0
  2  3  2  0  0  0  0
  2  4  1  0  0  0  0
  4  5  2  0  0  0  0
  4  6  1  0  0  0  0
  6  7  1  0  0  0  0
  7  8  1  0  0  0  0
  8  9  2  0  0  0  0
M  END
> <RowID>
1845

> <Original_SMILES>
CC(=C)C(=O)OCC=C

> <Canonical_QSARr>
CC(=C)C(=O)OCC=C

> <InChI_Code_QSARr>
InChI=1S/C7H10O2/c1-4-5-9-7(8)6(2)3/h4H,1-2,5H2,3H3

> <InChI Key_QSARr>
FBCQUCJYYPMKRO-UHFFFAOYSA-N

> <Salt_Solvent>


> <Salt_Solvent_ID>
0

> <Number of connected components>
1

$$$$
Molecule_1847
  Mrv2316 01072400032D          

 20 21  0  0  0  0            999 V2000
   -5.6443   -0.1237    0.0000 C   0  0  0  0  0  0  0  0  0  0  0  0
   -4.9298    0.2888    0.0000 C   0  0  0  0  0  0  0  0  0  0  0  0
   -4.2154   -0.1237    0.0000 C   0  0  0  0  0  0  0  0  0  0  0  0
   -3.5009    0.2888    0.0000 C   0  0  0  0  0  0  0  0  0  0  0  0
   -2.7864   -0.1237    0.0000 C   0  0  0  0  0  0  0  0  0  0  0  0
   -2.0720    0.2888    0.0000 C   0  0  0  0  0  0  0  0  0  0  0  0
   -2.0720    1.1137    0.0000 C   0  0  0  0  0  0  0  0  0  0  0  0
   -1.3575    1.5262    0.0000 C   0  0  0  0  0  0  0  0  0  0  0  0
   -0.6430    1.1137    0.0000 C   0  0  0  0  0  0  0  0  0  0  0  0
    0.0715    1.5262    0.0000 C   0  0  0  0  0  0  0  0  0  0  0  0
    0.0715    2.3512    0.0000 C   0  0  0  0  0  0  0  0  0  0  0  0
    0.7859    2.7637    0.0000 C   0  0  0  0  0  0  0  0  0  0  0  0
    1.5004    2.3512    0.0000 C   0  0  0  0  0  0  0  0  0  0  0  0
    2.2149    2.7637    0.0000 C   0  0  0  0  0  0  0  0  0  0  0  0
    2.9293    2.3512    0.0000 C   0  0  0  0  0  0  0  0  0  0  0  0
    3.6438    2.7637    0.0000 C   0  0  0  0  0  0  0  0  0  0  0  0
   -0.6430    2.7637    0.0000 C   0  0  0  0  0  0  0  0  0  0  0  0
   -1.3575    2.3512    0.0000 C   0  0  0  0  0  0  0  0  0  0  0  0
   -2.7864    1.5263    0.0000 C   0  0  0  0  0  0  0  0  0  0  0  0
   -3.5009    1.1138    0.0000 C   0  0  0  0  0  0  0  0  0  0  0  0
  1  2  1  0  0  0  0
  2  3  1  0  0  0  0
  3  4  1  0  0  0  0
  5  4  1  0  0  0  0
  6  5  2  0  0  0  0
  7  6  1  0  0  0  0
  7  8  1  0  0  0  0
  9  8  1  0  0  0  0
 10  9  1  0  0  0  0
 11 10  1  0  0  0  0
 11 12  1  0  0  0  0
 12 13  1  0  0  0  0
 13 14  1  0  0  0  0
 14 15  1  0  0  0  0
 15 16  1  0  0  0  0
 17 11  1  0  0  0  0
 18 17  1  0  0  0  0
  8 18  1  0  0  0  0
 19  7  2  0  0  0  0
 20 19  1  0  0  0  0
  4 20  2  0  0  0  0
M  END
> <RowID>
1847

> <Original_SMILES>
CCCC1C=CC(=CC=1)C1CCC(CCCCC)CC1

> <Canonical_QSARr>
CCCC1C=CC(=CC=1)C1CCC(CCCCC)CC1

> <InChI_Code_QSARr>
InChI=1S/C20H32/c1-3-5-6-8-18-11-15-20(16-12-18)19-13-9-17(7-4-2)10-14-19/h9-10,13-14,18,20H,3-8,11-12,15-16H2,1-2H3

> <InChI Key_QSARr>
RXBBPIPXHBOXOU-UHFFFAOYSA-N

> <Salt_Solvent>


> <Salt_Solvent_ID>
0

> <Number of connected components>
1

$$$$
Molecule_1848
  Mrv2316 01072400032D          

 18 18  0  0  0  0            999 V2000
   -0.4763    4.1250    0.0000 C   0  0  0  0  0  0  0  0  0  0  0  0
   -0.4763    3.3000    0.0000 C   0  0  0  0  0  0  0  0  0  0  0  0
    0.2382    2.8875    0.0000 C   0  0  0  0  0  0  0  0  0  0  0  0
    0.2382    2.0625    0.0000 O   0  0  0  0  0  0  0  0  0  0  0  0
    0.9526    1.6500    0.0000 C   0  0  0  0  0  0  0  0  0  0  0  0
    1.6671    2.0625    0.0000 O   0  0  0  0  0  0  0  0  0  0  0  0
    0.9526    0.8250    0.0000 C   0  0  0  0  0  0  0  0  0  0  0  0
    0.2382    0.4125    0.0000 C   0  0  0  0  0  0  0  0  0  0  0  0
    0.2382   -0.4125    0.0000 C   0  0  0  0  0  0  0  0  0  0  0  0
    0.9526   -0.8250    0.0000 C   0  0  0  0  0  0  0  0  0  0  0  0
    1.6671   -0.4125    0.0000 C   0  0  0  0  0  0  0  0  0  0  0  0
    1.6671    0.4125    0.0000 C   0  0  0  0  0  0  0  0  0  0  0  0
    2.3816    0.8250    0.0000 C   0  0  0  0  0  0  0  0  0  0  0  0
    2.3816    1.6500    0.0000 O   0  0  0  0  0  0  0  0  0  0  0  0
    3.0960    0.4125    0.0000 O   0  0  0  0  0  0  0  0  0  0  0  0
    3.8105    0.8250    0.0000 C   0  0  0  0  0  0  0  0  0  0  0  0
    4.5250    0.4125    0.0000 C   0  0  0  0  0  0  0  0  0  0  0  0
    5.2395    0.8250    0.0000 C   0  0  0  0  0  0  0  0  0  0  0  0
  1  2  2  0  0  0  0
  2  3  1  0  0  0  0
  3  4  1  0  0  0  0
  4  5  1  0  0  0  0
  5  6  2  0  0  0  0
  5  7  1  0  0  0  0
  8  7  1  0  0  0  0
  9  8  2  0  0  0  0
 10  9  1  0  0  0  0
 11 10  2  0  0  0  0
 12 11  1  0  0  0  0
  7 12  2  0  0  0  0
 12 13  1  0  0  0  0
 13 14  2  0  0  0  0
 13 15  1  0  0  0  0
 15 16  1  0  0  0  0
 16 17  1  0  0  0  0
 17 18  2  0  0  0  0
M  END
> <RowID>
1848

> <Original_SMILES>
C=CCOC(=O)C1C=CC=CC=1C(=O)OCC=C

> <Canonical_QSARr>
C=CCOC(=O)C1C=CC=CC=1C(=O)OCC=C

> <InChI_Code_QSARr>
InChI=1S/C14H14O4/c1-3-9-17-13(15)11-7-5-6-8-12(11)14(16)18-10-4-2/h3-8H,1-2,9-10H2

> <InChI Key_QSARr>
QUDWYFHPNIMBFC-UHFFFAOYSA-N

> <Salt_Solvent>


> <Salt_Solvent_ID>
0

> <Number of connected components>
1

$$$$
Molecule_1849
  Mrv2316 01072400032D          

 12 12  0  0  0  0            999 V2000
    2.1434   -1.2375    0.0000 O   0  0  0  0  0  0  0  0  0  0  0  0
    2.1434   -0.4125    0.0000 C   0  0  0  0  0  0  0  0  0  0  0  0
    2.8579   -0.0000    0.0000 O   0  0  0  0  0  0  0  0  0  0  0  0
    1.4289   -0.0000    0.0000 C   0  0  0  0  0  0  0  0  0  0  0  0
    1.4289    0.8250    0.0000 C   0  0  0  0  0  0  0  0  0  0  0  0
    0.7145    1.2375    0.0000 C   0  0  0  0  0  0  0  0  0  0  0  0
    0.7145    2.0625    0.0000 C   0  0  0  0  0  0  0  0  0  0  0  0
   -0.0000    2.4750    0.0000 O   0  0  0  0  0  0  0  0  0  0  0  0
    1.4289    2.4750    0.0000 O   0  0  0  0  0  0  0  0  0  0  0  0
   -0.0000    0.8250    0.0000 C   0  0  0  0  0  0  0  0  0  0  0  0
   -0.0000    0.0000    0.0000 C   0  0  0  0  0  0  0  0  0  0  0  0
    0.7145   -0.4125    0.0000 C   0  0  0  0  0  0  0  0  0  0  0  0
  1  2  1  0  0  0  0
  2  3  2  0  0  0  0
  2  4  1  0  0  0  0
  5  4  1  0  0  0  0
  6  5  2  0  0  0  0
  6  7  1  0  0  0  0
  7  8  1  0  0  0  0
  7  9  2  0  0  0  0
 10  6  1  0  0  0  0
 11 10  2  0  0  0  0
 12 11  1  0  0  0  0
  4 12  2  0  0  0  0
M  END
> <RowID>
1849

> <Original_SMILES>
OC(=O)C1C=C(C=CC=1)C(O)=O

> <Canonical_QSARr>
OC(=O)C1C=C(C=CC=1)C(O)=O

> <InChI_Code_QSARr>
InChI=1S/C8H6O4/c9-7(10)5-2-1-3-6(4-5)8(11)12/h1-4H,(H,9,10)(H,11,12)

> <InChI Key_QSARr>
QQVIHTHCMHWDBS-UHFFFAOYSA-N

> <Salt_Solvent>


> <Salt_Solvent_ID>
0

> <Number of connected components>
1

$$$$
Molecule_1850
  Mrv2316 01072400032D          

 10  9  0  0  0  0            999 V2000
    1.4289   -4.7289    0.0000 C   0  0  0  0  0  0  0  0  0  0  0  0
    1.4289   -3.9039    0.0000 C   0  0  0  0  0  0  0  0  0  0  0  0
    0.7145   -3.4914    0.0000 O   0  0  0  0  0  0  0  0  0  0  0  0
    0.7145   -2.6664    0.0000 C   0  0  0  0  0  0  0  0  0  0  0  0
   -0.0000   -2.2539    0.0000 O   0  0  0  0  0  0  0  0  0  0  0  0
   -0.0000   -1.4289    0.0000 C   0  0  0  0  0  0  0  0  0  0  0  0
   -0.7145   -1.0164    0.0000 C   0  0  0  0  0  0  0  0  0  0  0  0
    1.4289   -2.2539    0.0000 O   0  0  0  0  0  0  0  0  0  0  0  0
    1.4289   -1.4289    0.0000 C   0  0  0  0  0  0  0  0  0  0  0  0
    2.1434   -1.0164    0.0000 C   0  0  0  0  0  0  0  0  0  0  0  0
  1  2  1  0  0  0  0
  2  3  1  0  0  0  0
  3  4  1  0  0  0  0
  4  5  1  0  0  0  0
  5  6  1  0  0  0  0
  6  7  1  0  0  0  0
  4  8  1  0  0  0  0
  8  9  1  0  0  0  0
  9 10  1  0  0  0  0
M  END
> <RowID>
1850

> <Original_SMILES>
CCOC(OCC)OCC

> <Canonical_QSARr>
CCOC(OCC)OCC

> <InChI_Code_QSARr>
InChI=1S/C7H16O3/c1-4-8-7(9-5-2)10-6-3/h7H,4-6H2,1-3H3

> <InChI Key_QSARr>
GKASDNZWUGIAMG-UHFFFAOYSA-N

> <Salt_Solvent>


> <Salt_Solvent_ID>
0

> <Number of connected components>
1

$$$$
Molecule_1851
  Mrv2316 01072400032D          

 10 12  0  0  0  0            999 V2000
    0.1163   -2.0322    0.0000 C   0  0  0  0  0  0  0  0  0  0  0  0
    0.8517   -1.6585    0.0000 N   0  0  0  0  0  0  0  0  0  0  0  0
    1.5873   -2.0322    0.0000 C   0  0  0  0  0  0  0  0  0  0  0  0
    2.0368   -1.2419    0.0000 N   0  0  0  0  0  0  0  0  0  0  0  0
    2.0368   -0.4945    0.0000 C   0  0  0  0  0  0  0  0  0  0  0  0
    1.3012   -0.1208    0.0000 N   0  0  0  0  0  0  0  0  0  0  0  0
    0.8517   -0.9111    0.0000 C   0  0  0  0  0  0  0  0  0  0  0  0
    0.5657   -0.4945    0.0000 C   0  0  0  0  0  0  0  0  0  0  0  0
    0.5657   -1.2419    0.0000 N   0  0  0  0  0  0  0  0  0  0  0  0
    1.3012   -1.6156    0.0000 C   0  0  0  0  0  0  0  0  0  0  0  0
  2  1  1  0  0  0  0
  2  3  1  0  0  0  0
  3  4  1  0  0  0  0
  4 10  1  0  0  0  0
  5  6  1  0  0  0  0
  6  7  1  0  0  0  0
 10  9  1  0  0  0  0
  8  6  1  0  0  0  0
  1  9  1  0  0  0  0
  9  8  1  0  0  0  0
  7  2  1  0  0  0  0
  4  5  1  0  0  0  0
M  END
> <RowID>
1851

> <Original_SMILES>
C1N2CN3CN1CN(C2)C3

> <Canonical_QSARr>
C1N2CN3CN1CN(C2)C3

> <InChI_Code_QSARr>
InChI=1S/C6H12N4/c1-7-2-9-4-8(1)5-10(3-7)6-9/h1-6H2

> <InChI Key_QSARr>
VKYKSIONXSXAKP-UHFFFAOYSA-N

> <Salt_Solvent>


> <Salt_Solvent_ID>
0

> <Number of connected components>
1

$$$$
Molecule_1852
  Mrv2316 01072400032D          

 14 14  0  0  0  0            999 V2000
    2.2965   -0.6777    0.0000 N   0  0  0  0  0  0  0  0  0  0  0  0
    1.5820   -0.2652    0.0000 C   0  0  0  0  0  0  0  0  0  0  0  0
    1.5820    0.5598    0.0000 C   0  0  0  0  0  0  0  0  0  0  0  0
    0.8676    0.9723    0.0000 C   0  0  0  0  0  0  0  0  0  0  0  0
    0.8676    1.7973    0.0000 N   0  3  0  0  0  0  0  0  0  0  0  0
    1.5820    2.2098    0.0000 O   0  5  0  0  0  0  0  0  0  0  0  0
    0.1531    2.2098    0.0000 O   0  0  0  0  0  0  0  0  0  0  0  0
    0.1531    0.5598    0.0000 C   0  0  0  0  0  0  0  0  0  0  0  0
    0.1531   -0.2652    0.0000 C   0  0  0  0  0  0  0  0  0  0  0  0
   -0.5614   -0.6777    0.0000 N   0  3  0  0  0  0  0  0  0  0  0  0
   -0.5614   -1.5027    0.0000 O   0  5  0  0  0  0  0  0  0  0  0  0
   -1.2758   -0.2652    0.0000 O   0  0  0  0  0  0  0  0  0  0  0  0
    0.8676   -0.6777    0.0000 C   0  0  0  0  0  0  0  0  0  0  0  0
    0.8676   -1.5027    0.0000 O   0  0  0  0  0  0  0  0  0  0  0  0
  1  2  1  0  0  0  0
  3  2  1  0  0  0  0
  4  3  2  0  0  0  0
  4  5  1  0  0  0  0
  5  6  1  0  0  0  0
  5  7  2  0  0  0  0
  8  4  1  0  0  0  0
  9  8  2  0  0  0  0
  9 10  1  0  0  0  0
 10 11  1  0  0  0  0
 10 12  2  0  0  0  0
 13  9  1  0  0  0  0
  2 13  2  0  0  0  0
 13 14  1  0  0  0  0
M  CHG  4   5   1   6  -1  10   1  11  -1
M  END
> <RowID>
1852

> <Original_SMILES>
NC1C=C(C=C(C=1O)[N+]([O-])=O)[N+]([O-])=O

> <Canonical_QSARr>
NC1C=C(C=C(C=1O)[N+]([O-])=O)[N+]([O-])=O

> <InChI_Code_QSARr>
InChI=1S/C6H5N3O5/c7-4-1-3(8(11)12)2-5(6(4)10)9(13)14/h1-2,10H,7H2

> <InChI Key_QSARr>
QXYMVUZOGFVPGH-UHFFFAOYSA-N

> <Salt_Solvent>


> <Salt_Solvent_ID>
0

> <Number of connected components>
1

$$$$
Molecule_1853
  Mrv2316 01072400032D          

  9  9  0  0  0  0            999 V2000
    1.4289    2.4750    0.0000 C   0  0  0  0  0  0  0  0  0  0  0  0
    0.7145    2.0625    0.0000 C   0  0  0  0  0  0  0  0  0  0  0  0
   -0.0000    2.4750    0.0000 C   0  0  0  0  0  0  0  0  0  0  0  0
    0.7145    1.2375    0.0000 C   0  0  0  0  0  0  0  0  0  0  0  0
   -0.0000    0.8250    0.0000 C   0  0  0  0  0  0  0  0  0  0  0  0
   -0.0000   -0.0000    0.0000 C   0  0  0  0  0  0  0  0  0  0  0  0
    0.7145   -0.4125    0.0000 C   0  0  0  0  0  0  0  0  0  0  0  0
    1.4289    0.0000    0.0000 C   0  0  0  0  0  0  0  0  0  0  0  0
    1.4289    0.8250    0.0000 C   0  0  0  0  0  0  0  0  0  0  0  0
  1  2  1  0  0  0  0
  2  3  2  0  0  0  0
  2  4  1  0  0  0  0
  5  4  1  0  0  0  0
  6  5  2  0  0  0  0
  7  6  1  0  0  0  0
  8  7  2  0  0  0  0
  9  8  1  0  0  0  0
  4  9  2  0  0  0  0
M  END
> <RowID>
1853

> <Original_SMILES>
CC(=C)C1C=CC=CC=1

> <Canonical_QSARr>
CC(=C)C1C=CC=CC=1

> <InChI_Code_QSARr>
InChI=1S/C9H10/c1-8(2)9-6-4-3-5-7-9/h3-7H,1H2,2H3

> <InChI Key_QSARr>
XYLMUPLGERFSHI-UHFFFAOYSA-N

> <Salt_Solvent>


> <Salt_Solvent_ID>
0

> <Number of connected components>
1

$$$$
Molecule_1854
  Mrv2316 01072400032D          

 10 10  0  0  0  0            999 V2000
   -0.3572    2.2688    0.0000 O   0  5  0  0  0  0  0  0  0  0  0  0
   -0.3572    1.4438    0.0000 N   0  3  0  0  0  0  0  0  0  0  0  0
   -1.0717    1.0313    0.0000 O   0  0  0  0  0  0  0  0  0  0  0  0
    0.3572    1.0313    0.0000 C   0  0  0  0  0  0  0  0  0  0  0  0
    0.3572    0.2062    0.0000 C   0  0  0  0  0  0  0  0  0  0  0  0
    1.0717   -0.2063    0.0000 C   0  0  0  0  0  0  0  0  0  0  0  0
    1.7862    0.2062    0.0000 C   0  0  0  0  0  0  0  0  0  0  0  0
    1.7862    1.0312    0.0000 C   0  0  0  0  0  0  0  0  0  0  0  0
    1.0717    1.4437    0.0000 C   0  0  0  0  0  0  0  0  0  0  0  0
    1.0717    2.2687    0.0000 Cl  0  0  0  0  0  0  0  0  0  0  0  0
  1  2  1  0  0  0  0
  2  3  2  0  0  0  0
  2  4  1  0  0  0  0
  5  4  1  0  0  0  0
  6  5  2  0  0  0  0
  7  6  1  0  0  0  0
  8  7  2  0  0  0  0
  9  8  1  0  0  0  0
  4  9  2  0  0  0  0
  9 10  1  0  0  0  0
M  CHG  2   1  -1   2   1
M  END
> <RowID>
1854

> <Original_SMILES>
[O-][N+](=O)C1C=CC=CC=1Cl

> <Canonical_QSARr>
[O-][N+](=O)C1C=CC=CC=1Cl

> <InChI_Code_QSARr>
InChI=1S/C6H4ClNO2/c7-5-3-1-2-4-6(5)8(9)10/h1-4H

> <InChI Key_QSARr>
BFCFYVKQTRLZHA-UHFFFAOYSA-N

> <Salt_Solvent>


> <Salt_Solvent_ID>
0

> <Number of connected components>
1

$$$$
Molecule_1855
  Mrv2316 01072400032D          

 17 18  0  0  0  0            999 V2000
    2.8579   -8.3956    0.0000 O   0  0  0  0  0  0  0  0  0  0  0  0
    2.8579   -7.5706    0.0000 C   0  0  0  0  0  0  0  0  0  0  0  0
    3.5724   -7.1581    0.0000 C   0  0  0  0  0  0  0  0  0  0  0  0
    3.5724   -6.3331    0.0000 C   0  0  0  0  0  0  0  0  0  0  0  0
    2.8579   -5.9206    0.0000 C   0  0  0  0  0  0  0  0  0  0  0  0
    2.8579   -5.0956    0.0000 C   0  0  0  0  0  0  0  0  0  0  0  0
    3.5724   -4.6831    0.0000 O   0  0  0  0  0  0  0  0  0  0  0  0
    2.1434   -4.6831    0.0000 O   0  0  0  0  0  0  0  0  0  0  0  0
    2.1434   -3.8581    0.0000 C   0  0  0  0  0  0  0  0  0  0  0  0
    1.4289   -3.4456    0.0000 C   0  0  0  0  0  0  0  0  0  0  0  0
    1.4289   -2.6206    0.0000 C   0  0  0  0  0  0  0  0  0  0  0  0
    0.7145   -2.2081    0.0000 C   0  0  0  0  0  0  0  0  0  0  0  0
    0.0000   -2.6206    0.0000 C   0  0  0  0  0  0  0  0  0  0  0  0
    0.0000   -3.4456    0.0000 C   0  0  0  0  0  0  0  0  0  0  0  0
    0.7145   -3.8581    0.0000 C   0  0  0  0  0  0  0  0  0  0  0  0
    2.1434   -6.3331    0.0000 C   0  0  0  0  0  0  0  0  0  0  0  0
    2.1434   -7.1581    0.0000 C   0  0  0  0  0  0  0  0  0  0  0  0
  1  2  1  0  0  0  0
  3  2  2  0  0  0  0
  4  3  1  0  0  0  0
  5  4  2  0  0  0  0
  5  6  1  0  0  0  0
  6  7  2  0  0  0  0
  6  8  1  0  0  0  0
  8  9  1  0  0  0  0
  9 10  1  0  0  0  0
 11 10  1  0  0  0  0
 12 11  2  0  0  0  0
 13 12  1  0  0  0  0
 14 13  2  0  0  0  0
 15 14  1  0  0  0  0
 10 15  2  0  0  0  0
 16  5  1  0  0  0  0
 17 16  2  0  0  0  0
  2 17  1  0  0  0  0
M  END
> <RowID>
1855

> <Original_SMILES>
OC1=CC=C(C=C1)C(=O)OCC1C=CC=CC=1

> <Canonical_QSARr>
OC1=CC=C(C=C1)C(=O)OCC1C=CC=CC=1

> <InChI_Code_QSARr>
InChI=1S/C14H12O3/c15-13-8-6-12(7-9-13)14(16)17-10-11-4-2-1-3-5-11/h1-9,15H,10H2

> <InChI Key_QSARr>
MOZDKDIOPSPTBH-UHFFFAOYSA-N

> <Salt_Solvent>


> <Salt_Solvent_ID>
0

> <Number of connected components>
1

$$$$
Molecule_1856
  Mrv2316 01072400032D          

 27 30  0  0  0  0            999 V2000
    3.5330   -1.4471    0.0000 C   0  0  0  0  0  0  0  0  0  0  0  0
    3.8928   -2.1895    0.0000 C   0  0  0  0  0  0  0  0  0  0  0  0
    4.4247   -1.5588    0.0000 C   0  0  0  0  0  0  0  0  0  0  0  0
    5.2368   -1.7040    0.0000 C   0  0  0  0  0  0  0  0  0  0  0  0
    5.7686   -1.0733    0.0000 O   0  0  0  0  0  0  0  0  0  0  0  0
    5.5171   -2.4799    0.0000 C   0  0  0  0  0  0  0  0  0  0  0  0
    4.9853   -3.1106    0.0000 C   0  0  0  0  0  0  0  0  0  0  0  0
    5.2656   -3.8865    0.0000 C   0  0  0  0  0  0  0  0  0  0  0  0
    6.0777   -4.0317    0.0000 C   0  0  0  0  0  0  0  0  0  0  0  0
    6.6095   -3.4010    0.0000 C   0  0  0  0  0  0  0  0  0  0  0  0
    7.4216   -3.5462    0.0000 C   0  0  0  0  0  0  0  0  0  0  0  0
    7.9534   -2.9155    0.0000 C   0  0  0  0  0  0  0  0  0  0  0  0
    8.7656   -3.0608    0.0000 O   0  0  0  0  0  0  0  0  0  0  0  0
    7.6731   -2.1396    0.0000 C   0  0  0  0  0  0  0  0  0  0  0  0
    6.8610   -1.9944    0.0000 C   0  0  0  0  0  0  0  0  0  0  0  0
    6.3292   -2.6251    0.0000 C   0  0  0  0  0  0  0  0  0  0  0  0
    6.0489   -1.8492    0.0000 C   0  0  0  0  0  0  0  0  0  0  0  0
    4.1731   -2.9654    0.0000 C   0  0  0  0  0  0  0  0  0  0  0  0
    3.5218   -3.4717    0.0000 C   0  0  0  0  0  0  0  0  0  0  0  0
    2.8390   -3.0088    0.0000 C   0  0  0  0  0  0  0  0  0  0  0  0
    2.0630   -3.2891    0.0000 O   0  0  0  0  0  0  0  0  0  0  0  0
    3.0683   -2.2163    0.0000 C   0  0  0  0  0  0  0  0  0  0  0  0
    2.3074   -1.8974    0.0000 O   0  0  0  0  0  0  0  0  0  0  0  0
    2.9469   -1.4003    0.0000 C   0  0  0  0  0  0  0  0  0  0  0  0
    3.5929   -0.8871    0.0000 O   0  0  0  0  0  0  0  0  0  0  0  0
    2.1795   -1.0974    0.0000 C   0  0  0  0  0  0  0  0  0  0  0  0
    2.0581   -0.2814    0.0000 O   0  0  0  0  0  0  0  0  0  0  0  0
  1  2  1  0  0  0  0
  3  2  1  0  0  0  0
  4  3  1  0  0  0  0
  4  5  1  0  0  0  0
  6  4  1  0  0  0  0
  6  7  1  0  0  0  0
  7  8  1  0  0  0  0
  8  9  1  0  0  0  0
  9 10  1  0  0  0  0
 11 10  2  0  0  0  0
 12 11  1  0  0  0  0
 12 13  2  0  0  0  0
 14 12  1  0  0  0  0
 15 14  2  0  0  0  0
 16 15  1  0  0  0  0
 10 16  1  0  0  0  0
 16  6  1  0  0  0  0
 16 17  1  0  0  0  0
 18  7  1  0  0  0  0
 18  2  1  0  0  0  0
 19 18  1  0  0  0  0
 20 19  1  0  0  0  0
 20 21  1  0  0  0  0
 22 20  1  0  0  0  0
  2 22  1  0  0  0  0
 22 23  1  0  0  0  0
 22 24  1  0  0  0  0
 24 25  2  0  0  0  0
 24 26  1  0  0  0  0
 26 27  1  0  0  0  0
M  END
> <RowID>
1856

> <Original_SMILES>
CC12CC(O)C3C(CCC4=CC(=O)C=CC43C)C1CC(O)C2(O)C(=O)CO

> <Canonical_QSARr>
CC12CC(O)C3C(CCC4=CC(=O)C=CC43C)C1CC(O)C2(O)C(=O)CO

> <InChI_Code_QSARr>
InChI=1S/C21H28O6/c1-19-6-5-12(23)7-11(19)3-4-13-14-8-16(25)21(27,17(26)10-22)20(14,2)9-15(24)18(13)19/h5-7,13-16,18,22,24-25,27H,3-4,8-10H2,1-2H3

> <InChI Key_QSARr>
SEKYBDYVXDAYPY-UHFFFAOYSA-N

> <Salt_Solvent>


> <Salt_Solvent_ID>
0

> <Number of connected components>
1

$$$$
Molecule_1857
  Mrv2316 01072400032D          

 13 12  0  0  0  0            999 V2000
    5.4730   -3.9849    0.0000 C   0  0  0  0  0  0  0  0  0  0  0  0
    6.1875   -3.5724    0.0000 C   0  0  0  0  0  0  0  0  0  0  0  0
    6.9020   -3.9849    0.0000 C   0  0  0  0  0  0  0  0  0  0  0  0
    7.6164   -3.5724    0.0000 C   0  0  0  0  0  0  0  0  0  0  0  0
    8.3309   -3.9849    0.0000 C   0  0  0  0  0  0  0  0  0  0  0  0
    9.0454   -3.5724    0.0000 C   0  0  0  0  0  0  0  0  0  0  0  0
    9.7599   -3.9849    0.0000 C   0  0  0  0  0  0  0  0  0  0  0  0
   10.4743   -3.5724    0.0000 C   0  0  0  0  0  0  0  0  0  0  0  0
   11.1888   -3.9849    0.0000 C   0  0  0  0  0  0  0  0  0  0  0  0
   11.9033   -3.5724    0.0000 C   0  0  0  0  0  0  0  0  0  0  0  0
   12.6177   -3.9849    0.0000 C   0  0  0  0  0  0  0  0  0  0  0  0
   13.3322   -3.5724    0.0000 C   0  0  0  0  0  0  0  0  0  0  0  0
   14.0467   -3.1599    0.0000 N   0  0  0  0  0  0  0  0  0  0  0  0
  1  2  1  0  0  0  0
  2  3  1  0  0  0  0
  3  4  1  0  0  0  0
  4  5  1  0  0  0  0
  5  6  1  0  0  0  0
  6  7  1  0  0  0  0
  7  8  1  0  0  0  0
  8  9  1  0  0  0  0
  9 10  1  0  0  0  0
 10 11  1  0  0  0  0
 11 12  1  0  0  0  0
 12 13  3  0  0  0  0
M  END
> <RowID>
1857

> <Original_SMILES>
CCCCCCCCCCCC#N

> <Canonical_QSARr>
CCCCCCCCCCCC#N

> <InChI_Code_QSARr>
InChI=1S/C12H23N/c1-2-3-4-5-6-7-8-9-10-11-12-13/h2-11H2,1H3

> <InChI Key_QSARr>
VXCUURYYWGCLIH-UHFFFAOYSA-N

> <Salt_Solvent>


> <Salt_Solvent_ID>
0

> <Number of connected components>
1

$$$$
Molecule_1858
  Mrv2316 01072400032D          

 15 14  0  0  0  0            999 V2000
    3.5211    5.3329    0.0000 C   0  0  0  0  0  0  0  0  0  0  0  0
    3.5211    4.5079    0.0000 C   0  0  0  0  0  0  0  0  0  0  0  0
    4.2355    4.0954    0.0000 C   0  0  0  0  0  0  0  0  0  0  0  0
    4.2355    3.2704    0.0000 C   0  0  0  0  0  0  0  0  0  0  0  0
    4.9500    2.8579    0.0000 C   0  0  0  0  0  0  0  0  0  0  0  0
    5.6645    3.2704    0.0000 C   0  0  0  0  0  0  0  0  0  0  0  0
    6.3789    2.8579    0.0000 C   0  0  0  0  0  0  0  0  0  0  0  0
    7.0934    3.2704    0.0000 C   0  0  0  0  0  0  0  0  0  0  0  0
    7.8079    2.8579    0.0000 C   0  0  0  0  0  0  0  0  0  0  0  0
    8.5224    3.2704    0.0000 C   0  0  0  0  0  0  0  0  0  0  0  0
    9.2368    2.8579    0.0000 C   0  0  0  0  0  0  0  0  0  0  0  0
    9.9513    3.2704    0.0000 C   0  0  0  0  0  0  0  0  0  0  0  0
    9.9513    4.0954    0.0000 O   0  0  0  0  0  0  0  0  0  0  0  0
   10.6658    2.8579    0.0000 O   0  0  0  0  0  0  0  0  0  0  0  0
   11.3802    3.2704    0.0000 C   0  0  0  0  0  0  0  0  0  0  0  0
  1  2  1  0  0  0  0
  3  2  1  4  0  0  0
  3  4  2  0  0  0  0
  4  5  1  0  0  0  0
  5  6  1  0  0  0  0
  6  7  1  0  0  0  0
  7  8  1  0  0  0  0
  8  9  1  0  0  0  0
  9 10  1  0  0  0  0
 10 11  1  0  0  0  0
 11 12  1  0  0  0  0
 12 13  2  0  0  0  0
 12 14  1  0  0  0  0
 14 15  1  0  0  0  0
M  END
> <RowID>
1858

> <Original_SMILES>
CCC=CCCCCCCCC(=O)OC

> <Canonical_QSARr>
CCC=CCCCCCCCC(=O)OC

> <InChI_Code_QSARr>
InChI=1S/C13H24O2/c1-3-4-5-6-7-8-9-10-11-12-13(14)15-2/h4-5H,3,6-12H2,1-2H3

> <InChI Key_QSARr>
DUWQEMMRMJGHSA-UHFFFAOYSA-N

> <Salt_Solvent>


> <Salt_Solvent_ID>
0

> <Number of connected components>
1

$$$$
Molecule_1859
  Mrv2316 01072400032D          

 13 12  0  0  0  0            999 V2000
    5.4730    3.9849    0.0000 O   0  0  0  0  0  0  0  0  0  0  0  0
    6.1875    3.5724    0.0000 C   0  0  0  0  0  0  0  0  0  0  0  0
    6.9020    3.9849    0.0000 C   0  0  0  0  0  0  0  0  0  0  0  0
    7.6164    3.5724    0.0000 O   0  0  0  0  0  0  0  0  0  0  0  0
    8.3309    3.9849    0.0000 C   0  0  0  0  0  0  0  0  0  0  0  0
    9.0454    3.5724    0.0000 C   0  0  0  0  0  0  0  0  0  0  0  0
    9.7599    3.9849    0.0000 O   0  0  0  0  0  0  0  0  0  0  0  0
   10.4743    3.5724    0.0000 C   0  0  0  0  0  0  0  0  0  0  0  0
   11.1888    3.9849    0.0000 C   0  0  0  0  0  0  0  0  0  0  0  0
   11.9033    3.5724    0.0000 O   0  0  0  0  0  0  0  0  0  0  0  0
   12.6177    3.9849    0.0000 C   0  0  0  0  0  0  0  0  0  0  0  0
   13.3322    3.5724    0.0000 C   0  0  0  0  0  0  0  0  0  0  0  0
   14.0467    3.9849    0.0000 O   0  0  0  0  0  0  0  0  0  0  0  0
  1  2  1  0  0  0  0
  2  3  1  0  0  0  0
  3  4  1  0  0  0  0
  4  5  1  0  0  0  0
  5  6  1  0  0  0  0
  6  7  1  0  0  0  0
  7  8  1  0  0  0  0
  8  9  1  0  0  0  0
  9 10  1  0  0  0  0
 10 11  1  0  0  0  0
 11 12  1  0  0  0  0
 12 13  1  0  0  0  0
M  END
> <RowID>
1859

> <Original_SMILES>
OCCOCCOCCOCCO

> <Canonical_QSARr>
OCCOCCOCCOCCO

> <InChI_Code_QSARr>
InChI=1S/C8H18O5/c9-1-3-11-5-7-13-8-6-12-4-2-10/h9-10H,1-8H2

> <InChI Key_QSARr>
UWHCKJMYHZGTIT-UHFFFAOYSA-N

> <Salt_Solvent>


> <Salt_Solvent_ID>
0

> <Number of connected components>
1

$$$$
Molecule_1860
  Mrv2316 01072400032D          

  6  5  0  0  0  0            999 V2000
    0.8250    1.4289    0.0000 C   0  0  0  0  0  0  0  0  0  0  0  0
    1.2375    0.7145    0.0000 C   0  0  0  0  0  0  0  0  0  0  0  0
    2.0625    0.7145    0.0000 N   0  0  0  0  0  0  0  0  0  0  0  0
    0.8250   -0.0000    0.0000 C   0  0  0  0  0  0  0  0  0  0  0  0
    1.2375   -0.7145    0.0000 O   0  0  0  0  0  0  0  0  0  0  0  0
    0.0000   -0.0000    0.0000 O   0  0  0  0  0  0  0  0  0  0  0  0
  1  2  1  0  0  0  0
  2  3  1  0  0  0  0
  2  4  1  0  0  0  0
  4  5  1  0  0  0  0
  4  6  2  0  0  0  0
M  END
> <RowID>
1860

> <Original_SMILES>
CC(N)C(O)=O

> <Canonical_QSARr>
CC(N)C(O)=O

> <InChI_Code_QSARr>
InChI=1S/C3H7NO2/c1-2(4)3(5)6/h2H,4H2,1H3,(H,5,6)

> <InChI Key_QSARr>
QNAYBMKLOCPYGJ-UHFFFAOYSA-N

> <Salt_Solvent>


> <Salt_Solvent_ID>
0

> <Number of connected components>
1

$$$$
Molecule_1861
  Mrv2316 01072400032D          

 59 64  0  0  0  0            999 V2000
   -2.8458    0.8040    0.0000 O   0  5  0  0  0  0  0  0  0  0  0  0
   -2.8458   -0.0210    0.0000 N   0  3  0  0  0  0  0  0  0  0  0  0
   -3.5602   -0.4335    0.0000 O   0  0  0  0  0  0  0  0  0  0  0  0
   -2.1313   -0.4335    0.0000 C   0  0  0  0  0  0  0  0  0  0  0  0
   -2.1313   -1.2585    0.0000 C   0  0  0  0  0  0  0  0  0  0  0  0
   -1.4168   -1.6710    0.0000 C   0  0  0  0  0  0  0  0  0  0  0  0
   -0.7024   -1.2585    0.0000 C   0  0  0  0  0  0  0  0  0  0  0  0
    0.0121   -1.6710    0.0000 N   0  0  0  0  0  0  0  0  0  0  0  0
    0.7266   -1.2585    0.0000 N   0  0  0  0  0  0  0  0  0  0  0  0
    1.4410   -1.6710    0.0000 C   0  0  0  0  0  0  0  0  0  0  0  0
    2.1555   -1.2585    0.0000 C   0  0  0  0  0  0  0  0  0  0  0  0
    2.1555   -0.4335    0.0000 N   0  0  0  0  0  0  0  0  0  0  0  0
    2.8700   -1.6710    0.0000 C   0  0  0  0  0  0  0  0  0  0  0  0
    3.5845   -1.2585    0.0000 C   0  0  0  0  0  0  0  0  0  0  0  0
    4.2989   -1.6710    0.0000 C   0  0  0  0  0  0  0  0  0  0  0  0
    4.2989   -2.4960    0.0000 C   0  0  0  0  0  0  0  0  0  0  0  0
    3.5845   -2.9085    0.0000 C   0  0  0  0  0  0  0  0  0  0  0  0
    2.8700   -2.4960    0.0000 C   0  0  0  0  0  0  0  0  0  0  0  0
    2.1555   -2.9085    0.0000 C   0  0  0  0  0  0  0  0  0  0  0  0
    1.4410   -2.4960    0.0000 C   0  0  0  0  0  0  0  0  0  0  0  0
    0.7266   -2.9085    0.0000 S   0  0  0  0  0  0  0  0  0  0  0  0
    0.0121   -3.3210    0.0000 O   0  0  0  0  0  0  0  0  0  0  0  0
    0.3141   -2.1940    0.0000 O   0  0  0  0  0  0  0  0  0  0  0  0
    1.1391   -3.6229    0.0000 O   0  0  0  0  0  0  0  0  0  0  0  0
    5.0134   -2.9085    0.0000 S   0  0  0  0  0  0  0  0  0  0  0  0
    5.7279   -3.3210    0.0000 O   0  0  0  0  0  0  0  0  0  0  0  0
    4.6009   -3.6229    0.0000 O   0  0  0  0  0  0  0  0  0  0  0  0
    5.4259   -2.1940    0.0000 O   0  0  0  0  0  0  0  0  0  0  0  0
    5.0134   -1.2585    0.0000 N   0  0  0  0  0  0  0  0  0  0  0  0
    5.7279   -1.6710    0.0000 N   0  0  0  0  0  0  0  0  0  0  0  0
    6.4423   -1.2585    0.0000 C   0  0  0  0  0  0  0  0  0  0  0  0
    7.1568   -1.6710    0.0000 C   0  0  0  0  0  0  0  0  0  0  0  0
    7.8713   -1.2585    0.0000 C   0  0  0  0  0  0  0  0  0  0  0  0
    7.8713   -0.4335    0.0000 C   0  0  0  0  0  0  0  0  0  0  0  0
    8.5858   -0.0210    0.0000 N   0  0  0  0  0  0  0  0  0  0  0  0
    8.5858    0.8040    0.0000 S   0  0  0  0  0  0  0  0  0  0  0  0
    8.5858    1.6290    0.0000 C   0  0  0  0  0  0  0  0  0  0  0  0
    9.3002    2.0415    0.0000 C   0  0  0  0  0  0  0  0  0  0  0  0
    9.3002    2.8665    0.0000 C   0  0  0  0  0  0  0  0  0  0  0  0
    8.5858    3.2790    0.0000 C   0  0  0  0  0  0  0  0  0  0  0  0
    8.5858    4.1040    0.0000 N   0  0  0  0  0  0  0  0  0  0  0  0
    9.3002    4.5165    0.0000 N   0  0  0  0  0  0  0  0  0  0  0  0
    9.3002    5.3415    0.0000 C   0  0  0  0  0  0  0  0  0  0  0  0
   10.0147    5.7540    0.0000 C   0  0  0  0  0  0  0  0  0  0  0  0
   10.7292    5.3415    0.0000 O   0  0  0  0  0  0  0  0  0  0  0  0
   10.0147    6.5790    0.0000 C   0  0  0  0  0  0  0  0  0  0  0  0
    9.3002    6.9915    0.0000 C   0  0  0  0  0  0  0  0  0  0  0  0
    9.3002    7.8165    0.0000 O   0  0  0  0  0  0  0  0  0  0  0  0
    8.5858    6.5790    0.0000 C   0  0  0  0  0  0  0  0  0  0  0  0
    8.5858    5.7540    0.0000 C   0  0  0  0  0  0  0  0  0  0  0  0
    7.8713    2.8665    0.0000 C   0  0  0  0  0  0  0  0  0  0  0  0
    7.8713    2.0415    0.0000 C   0  0  0  0  0  0  0  0  0  0  0  0
    9.4108    0.8040    0.0000 O   0  0  0  0  0  0  0  0  0  0  0  0
    7.7608    0.8040    0.0000 O   0  0  0  0  0  0  0  0  0  0  0  0
    7.1568   -0.0210    0.0000 C   0  0  0  0  0  0  0  0  0  0  0  0
    6.4423   -0.4335    0.0000 C   0  0  0  0  0  0  0  0  0  0  0  0
    3.5845   -0.4335    0.0000 O   0  0  0  0  0  0  0  0  0  0  0  0
   -0.7024   -0.4335    0.0000 C   0  0  0  0  0  0  0  0  0  0  0  0
   -1.4168   -0.0210    0.0000 C   0  0  0  0  0  0  0  0  0  0  0  0
  1  2  1  0  0  0  0
  2  3  2  0  0  0  0
  2  4  1  0  0  0  0
  5  4  2  0  0  0  0
  6  5  1  0  0  0  0
  7  6  2  0  0  0  0
  8  7  1  4  0  0  0
  8  9  2  0  0  0  0
  9 10  1  0  0  0  0
 11 10  2  0  0  0  0
 11 12  1  0  0  0  0
 13 11  1  0  0  0  0
 13 14  2  0  0  0  0
 14 15  1  0  0  0  0
 15 16  2  0  0  0  0
 16 17  1  0  0  0  0
 17 18  2  0  0  0  0
 18 13  1  0  0  0  0
 19 18  1  0  0  0  0
 20 19  2  0  0  0  0
 10 20  1  0  0  0  0
 20 21  1  0  0  0  0
 21 22  1  0  0  0  0
 21 23  2  0  0  0  0
 21 24  2  0  0  0  0
 16 25  1  0  0  0  0
 25 26  1  0  0  0  0
 25 27  2  0  0  0  0
 25 28  2  0  0  0  0
 29 15  1  4  0  0  0
 29 30  2  0  0  0  0
 30 31  1  0  0  0  0
 32 31  2  0  0  0  0
 33 32  1  0  0  0  0
 34 33  2  0  0  0  0
 34 35  1  0  0  0  0
 35 36  1  0  0  0  0
 36 37  1  0  0  0  0
 38 37  2  0  0  0  0
 39 38  1  0  0  0  0
 40 39  2  0  0  0  0
 41 40  1  4  0  0  0
 41 42  2  0  0  0  0
 42 43  1  0  0  0  0
 44 43  2  0  0  0  0
 44 45  1  0  0  0  0
 46 44  1  0  0  0  0
 47 46  2  0  0  0  0
 47 48  1  0  0  0  0
 49 47  1  0  0  0  0
 50 49  2  0  0  0  0
 43 50  1  0  0  0  0
 51 40  1  0  0  0  0
 52 51  2  0  0  0  0
 37 52  1  0  0  0  0
 36 53  2  0  0  0  0
 36 54  2  0  0  0  0
 55 34  1  0  0  0  0
 56 55  2  0  0  0  0
 31 56  1  0  0  0  0
 14 57  1  0  0  0  0
 58  7  1  0  0  0  0
 59 58  2  0  0  0  0
  4 59  1  0  0  0  0
M  CHG  2   1  -1   2   1
M  END
> <RowID>
1861

> <Original_SMILES>
[Na+].[Na+].NC1C2C(=CC(=C(N=NC3C=CC(=CC=3)NS(=O)(=O)C3C=CC(=CC=3)N=NC3C=CC(O)=CC=3O)C=2O)S([O-])(=O)=O)C=C(C=1N=NC1C=CC(=CC=1)[N+]([O-])=O)S([O-])(=O)=O

> <Canonical_QSARr>
NC1C2C(=CC(=C(N=NC3C=CC(=CC=3)NS(=O)(=O)C3C=CC(=CC=3)N=NC3C=CC(O)=CC=3O)C=2O)S(O)(=O)=O)C=C(C=1N=NC1C=CC(=CC=1)[N+]([O-])=O)S(O)(=O)=O

> <InChI_Code_QSARr>
InChI=1S/C34H25N9O13S3/c35-31-30-18(15-28(58(51,52)53)32(31)40-37-20-5-9-23(10-6-20)43(47)48)16-29(59(54,55)56)33(34(30)46)41-38-19-1-3-22(4-2-19)42-57(49,50)25-12-7-21(8-13-25)36-39-26-14-11-24(44)17-27(26)45/h1-17,42,44-46H,35H2,(H,51,52,53)(H,54,55,56)

> <InChI Key_QSARr>
JQIOLMICJSHGLH-UHFFFAOYSA-N

> <Salt_Solvent>
[Na+]

> <Salt_Solvent_ID>
110

> <Number of connected components>
3

$$$$
Molecule_1862
  Mrv2316 01072400032D          

 19 18  0  0  0  0            999 V2000
    7.9480    5.4138    0.0000 C   0  0  0  0  0  0  0  0  0  0  0  0
    8.6625    5.0013    0.0000 C   0  0  0  0  0  0  0  0  0  0  0  0
    9.3770    5.4138    0.0000 C   0  0  0  0  0  0  0  0  0  0  0  0
   10.0914    5.0013    0.0000 C   0  0  0  0  0  0  0  0  0  0  0  0
   10.8059    5.4138    0.0000 C   0  0  0  0  0  0  0  0  0  0  0  0
   11.5204    5.0013    0.0000 C   0  0  0  0  0  0  0  0  0  0  0  0
   12.2349    5.4138    0.0000 C   0  0  0  0  0  0  0  0  0  0  0  0
   12.9493    5.0013    0.0000 C   0  0  0  0  0  0  0  0  0  0  0  0
   13.6638    5.4138    0.0000 C   0  0  0  0  0  0  0  0  0  0  0  0
   14.3783    5.0013    0.0000 C   0  0  0  0  0  0  0  0  0  0  0  0
   15.0927    5.4138    0.0000 C   0  0  0  0  0  0  0  0  0  0  0  0
   15.8072    5.0013    0.0000 C   0  0  0  0  0  0  0  0  0  0  0  0
   16.5217    5.4138    0.0000 C   0  0  0  0  0  0  0  0  0  0  0  0
   17.2362    5.0013    0.0000 C   0  0  0  0  0  0  0  0  0  0  0  0
   17.2362    4.1763    0.0000 O   0  0  0  0  0  0  0  0  0  0  0  0
   17.9506    5.4138    0.0000 O   0  0  0  0  0  0  0  0  0  0  0  0
   18.6651    5.0013    0.0000 C   0  0  0  0  0  0  0  0  0  0  0  0
   19.3796    5.4138    0.0000 C   0  0  0  0  0  0  0  0  0  0  0  0
   18.6651    4.1763    0.0000 C   0  0  0  0  0  0  0  0  0  0  0  0
  1  2  1  0  0  0  0
  2  3  1  0  0  0  0
  3  4  1  0  0  0  0
  4  5  1  0  0  0  0
  5  6  1  0  0  0  0
  6  7  1  0  0  0  0
  7  8  1  0  0  0  0
  8  9  1  0  0  0  0
  9 10  1  0  0  0  0
 10 11  1  0  0  0  0
 11 12  1  0  0  0  0
 12 13  1  0  0  0  0
 13 14  1  0  0  0  0
 14 15  2  0  0  0  0
 14 16  1  0  0  0  0
 16 17  1  0  0  0  0
 17 18  1  0  0  0  0
 17 19  1  0  0  0  0
M  END
> <RowID>
1862

> <Original_SMILES>
CCCCCCCCCCCCCC(=O)OC(C)C

> <Canonical_QSARr>
CCCCCCCCCCCCCC(=O)OC(C)C

> <InChI_Code_QSARr>
InChI=1S/C17H34O2/c1-4-5-6-7-8-9-10-11-12-13-14-15-17(18)19-16(2)3/h16H,4-15H2,1-3H3

> <InChI Key_QSARr>
AXISYYRBXTVTFY-UHFFFAOYSA-N

> <Salt_Solvent>


> <Salt_Solvent_ID>
0

> <Number of connected components>
1

$$$$
Molecule_1863
  Mrv2316 01072400032D          

 23 23  0  0  0  0            999 V2000
   -0.5931    4.4996    0.0000 C   0  0  0  0  0  0  0  0  0  0  0  0
    0.1214    4.0871    0.0000 C   0  0  0  0  0  0  0  0  0  0  0  0
    0.8359    4.4996    0.0000 C   0  0  0  0  0  0  0  0  0  0  0  0
    1.5503    4.0871    0.0000 C   0  0  0  0  0  0  0  0  0  0  0  0
    2.2648    4.4996    0.0000 C   0  0  0  0  0  0  0  0  0  0  0  0
    2.9793    4.0871    0.0000 C   0  0  0  0  0  0  0  0  0  0  0  0
    3.6937    4.4996    0.0000 C   0  0  0  0  0  0  0  0  0  0  0  0
    4.4082    4.0871    0.0000 C   0  0  0  0  0  0  0  0  0  0  0  0
    5.1227    4.4996    0.0000 C   0  0  0  0  0  0  0  0  0  0  0  0
    5.8372    4.0871    0.0000 C   0  0  0  0  0  0  0  0  0  0  0  0
    6.5516    4.4996    0.0000 C   0  0  0  0  0  0  0  0  0  0  0  0
    7.2661    4.0871    0.0000 C   0  0  0  0  0  0  0  0  0  0  0  0
    7.9806    4.4996    0.0000 C   0  0  0  0  0  0  0  0  0  0  0  0
    8.6950    4.0871    0.0000 C   0  0  0  0  0  0  0  0  0  0  0  0
    9.4095    4.4996    0.0000 C   0  0  0  0  0  0  0  0  0  0  0  0
   10.1240    4.0871    0.0000 C   0  0  0  0  0  0  0  0  0  0  0  0
   10.8385    4.4996    0.0000 C   0  0  0  0  0  0  0  0  0  0  0  0
   11.5529    4.0871    0.0000 C   0  0  0  0  0  0  0  0  0  0  0  0
   12.2674    4.4996    0.0000 O   0  0  0  0  0  0  0  0  0  0  0  0
   12.9819    4.0871    0.0000 C   0  0  0  0  0  0  0  0  0  0  0  0
   13.6963    4.4996    0.0000 C   0  0  0  0  0  0  0  0  0  0  0  0
   14.5213    4.4996    0.0000 C   0  0  0  0  0  0  0  0  0  0  0  0
   14.1088    5.2140    0.0000 O   0  0  0  0  0  0  0  0  0  0  0  0
  1  2  1  0  0  0  0
  2  3  1  0  0  0  0
  3  4  1  0  0  0  0
  4  5  1  0  0  0  0
  5  6  1  0  0  0  0
  6  7  1  0  0  0  0
  7  8  1  0  0  0  0
  9  8  1  4  0  0  0
  9 10  2  0  0  0  0
 10 11  1  0  0  0  0
 11 12  1  0  0  0  0
 12 13  1  0  0  0  0
 13 14  1  0  0  0  0
 14 15  1  0  0  0  0
 15 16  1  0  0  0  0
 16 17  1  0  0  0  0
 17 18  1  0  0  0  0
 18 19  1  0  0  0  0
 19 20  1  0  0  0  0
 20 21  1  0  0  0  0
 22 21  1  0  0  0  0
 23 22  1  0  0  0  0
 21 23  1  0  0  0  0
M  END
> <RowID>
1863

> <Original_SMILES>
CCCCCCCCC=CCCCCCCCCOCC1CO1

> <Canonical_QSARr>
CCCCCCCCC=CCCCCCCCCOCC1CO1

> <InChI_Code_QSARr>
InChI=1S/C21H40O2/c1-2-3-4-5-6-7-8-9-10-11-12-13-14-15-16-17-18-22-19-21-20-23-21/h9-10,21H,2-8,11-20H2,1H3

> <InChI Key_QSARr>
DDHJMUWKDMGQFH-UHFFFAOYSA-N

> <Salt_Solvent>


> <Salt_Solvent_ID>
0

> <Number of connected components>
1

$$$$
Molecule_1864
  Mrv2316 01072400032D          

 59 64  0  0  0  0            999 V2000
   -7.0963    6.6839    0.0000 O   0  0  0  0  0  0  0  0  0  0  0  0
   -7.8107    6.2714    0.0000 S   0  0  0  0  0  0  0  0  0  0  0  0
   -7.3982    5.5569    0.0000 O   0  0  0  0  0  0  0  0  0  0  0  0
   -8.2232    6.9859    0.0000 O   0  0  0  0  0  0  0  0  0  0  0  0
   -8.5252    5.8589    0.0000 C   0  0  0  0  0  0  0  0  0  0  0  0
   -9.2397    6.2714    0.0000 C   0  0  0  0  0  0  0  0  0  0  0  0
   -9.9541    5.8589    0.0000 C   0  0  0  0  0  0  0  0  0  0  0  0
   -9.9541    5.0339    0.0000 C   0  0  0  0  0  0  0  0  0  0  0  0
  -10.6686    4.6214    0.0000 C   0  0  0  0  0  0  0  0  0  0  0  0
  -11.3831    5.0339    0.0000 C   0  0  0  0  0  0  0  0  0  0  0  0
  -11.3831    5.8589    0.0000 C   0  0  0  0  0  0  0  0  0  0  0  0
  -10.6686    6.2714    0.0000 C   0  0  0  0  0  0  0  0  0  0  0  0
  -12.0976    6.2714    0.0000 S   0  0  0  0  0  0  0  0  0  0  0  0
  -12.8120    6.6839    0.0000 O   0  0  0  0  0  0  0  0  0  0  0  0
  -12.5101    5.5569    0.0000 O   0  0  0  0  0  0  0  0  0  0  0  0
  -11.6851    6.9859    0.0000 O   0  0  0  0  0  0  0  0  0  0  0  0
   -9.2397    4.6214    0.0000 C   0  0  0  0  0  0  0  0  0  0  0  0
   -9.2397    3.7964    0.0000 O   0  0  0  0  0  0  0  0  0  0  0  0
   -8.5252    5.0339    0.0000 C   0  0  0  0  0  0  0  0  0  0  0  0
   -7.8107    4.6214    0.0000 N   0  0  0  0  0  0  0  0  0  0  0  0
   -7.8107    3.7964    0.0000 N   0  0  0  0  0  0  0  0  0  0  0  0
   -7.0963    3.3839    0.0000 C   0  0  0  0  0  0  0  0  0  0  0  0
   -7.0963    2.5589    0.0000 C   0  0  0  0  0  0  0  0  0  0  0  0
   -6.3818    2.1464    0.0000 C   0  0  0  0  0  0  0  0  0  0  0  0
   -5.6673    2.5589    0.0000 C   0  0  0  0  0  0  0  0  0  0  0  0
   -4.9528    2.1464    0.0000 N   0  0  0  0  0  0  0  0  0  0  0  0
   -4.9528    1.3214    0.0000 N   0  0  0  0  0  0  0  0  0  0  0  0
   -4.2384    0.9089    0.0000 C   0  0  0  0  0  0  0  0  0  0  0  0
   -4.2384    0.0839    0.0000 C   0  0  0  0  0  0  0  0  0  0  0  0
   -3.5239   -0.3286    0.0000 C   0  0  0  0  0  0  0  0  0  0  0  0
   -2.8094    0.0839    0.0000 C   0  0  0  0  0  0  0  0  0  0  0  0
   -2.0950   -0.3286    0.0000 N   0  0  0  0  0  0  0  0  0  0  0  0
   -2.0950   -1.1536    0.0000 N   0  0  0  0  0  0  0  0  0  0  0  0
   -1.3805   -1.5661    0.0000 C   0  0  0  0  0  0  0  0  0  0  0  0
   -1.3805   -2.3911    0.0000 C   0  0  0  0  0  0  0  0  0  0  0  0
   -2.0950   -2.8036    0.0000 S   0  0  0  0  0  0  0  0  0  0  0  0
   -2.8094   -3.2161    0.0000 O   0  0  0  0  0  0  0  0  0  0  0  0
   -1.6825   -3.5181    0.0000 O   0  0  0  0  0  0  0  0  0  0  0  0
   -2.5075   -2.0891    0.0000 O   0  0  0  0  0  0  0  0  0  0  0  0
   -0.6660   -2.8036    0.0000 C   0  0  0  0  0  0  0  0  0  0  0  0
    0.0484   -2.3911    0.0000 C   0  0  0  0  0  0  0  0  0  0  0  0
    0.0484   -1.5661    0.0000 C   0  0  0  0  0  0  0  0  0  0  0  0
    0.7629   -1.1536    0.0000 C   0  0  0  0  0  0  0  0  0  0  0  0
    1.4774   -1.5661    0.0000 C   0  0  0  0  0  0  0  0  0  0  0  0
    1.4774   -2.3911    0.0000 C   0  0  0  0  0  0  0  0  0  0  0  0
    0.7629   -2.8036    0.0000 C   0  0  0  0  0  0  0  0  0  0  0  0
    2.1919   -2.8036    0.0000 S   0  0  0  0  0  0  0  0  0  0  0  0
    2.9063   -3.2161    0.0000 O   0  0  0  0  0  0  0  0  0  0  0  0
    1.7794   -3.5181    0.0000 O   0  0  0  0  0  0  0  0  0  0  0  0
    2.6044   -2.0891    0.0000 O   0  0  0  0  0  0  0  0  0  0  0  0
   -0.6660   -1.1536    0.0000 C   0  0  0  0  0  0  0  0  0  0  0  0
   -0.6660   -0.3286    0.0000 O   0  0  0  0  0  0  0  0  0  0  0  0
   -2.8094    0.9089    0.0000 C   0  0  0  0  0  0  0  0  0  0  0  0
   -2.0950    1.3214    0.0000 O   0  0  0  0  0  0  0  0  0  0  0  0
   -3.5239    1.3214    0.0000 C   0  0  0  0  0  0  0  0  0  0  0  0
   -4.2384    2.5589    0.0000 O   0  0  0  0  0  0  0  0  0  0  0  0
   -5.6673    3.3839    0.0000 C   0  0  0  0  0  0  0  0  0  0  0  0
   -6.3818    3.7964    0.0000 C   0  0  0  0  0  0  0  0  0  0  0  0
   -6.3818    4.6214    0.0000 O   0  0  0  0  0  0  0  0  0  0  0  0
  1  2  1  0  0  0  0
  2  3  2  0  0  0  0
  2  4  2  0  0  0  0
  2  5  1  0  0  0  0
  6  5  2  0  0  0  0
  7  6  1  0  0  0  0
  7  8  2  0  0  0  0
  8  9  1  0  0  0  0
  9 10  2  0  0  0  0
 10 11  1  0  0  0  0
 11 12  2  0  0  0  0
 12  7  1  0  0  0  0
 11 13  1  0  0  0  0
 13 14  1  0  0  0  0
 13 15  2  0  0  0  0
 13 16  2  0  0  0  0
 17  8  1  0  0  0  0
 17 18  1  0  0  0  0
 19 17  2  0  0  0  0
  5 19  1  0  0  0  0
 20 19  1  4  0  0  0
 20 21  2  0  0  0  0
 21 22  1  0  0  0  0
 23 22  1  0  0  0  0
 24 23  2  0  0  0  0
 25 24  1  0  0  0  0
 25 26  1  0  0  0  0
 26 27  2  0  0  0  0
 27 28  1  0  0  0  0
 29 28  1  0  0  0  0
 30 29  2  0  0  0  0
 31 30  1  0  0  0  0
 32 31  1  4  0  0  0
 32 33  2  0  0  0  0
 33 34  1  0  0  0  0
 35 34  1  0  0  0  0
 35 36  1  0  0  0  0
 36 37  1  0  0  0  0
 36 38  2  0  0  0  0
 36 39  2  0  0  0  0
 40 35  2  0  0  0  0
 41 40  1  0  0  0  0
 41 42  2  0  0  0  0
 42 43  1  0  0  0  0
 43 44  2  0  0  0  0
 44 45  1  0  0  0  0
 45 46  2  0  0  0  0
 46 41  1  0  0  0  0
 45 47  1  0  0  0  0
 47 48  1  0  0  0  0
 47 49  2  0  0  0  0
 47 50  2  0  0  0  0
 51 42  1  0  0  0  0
 34 51  2  0  0  0  0
 51 52  1  0  0  0  0
 53 31  2  0  0  0  0
 53 54  1  0  0  0  0
 55 53  1  0  0  0  0
 28 55  2  0  0  0  0
 26 56  2  0  0  0  0
 57 25  2  0  0  0  0
 58 57  1  0  0  0  0
 22 58  2  0  0  0  0
 58 59  1  0  0  0  0
M  END
> <RowID>
1864

> <Original_SMILES>
[Na+].[Na+].[Na+].[Na+].[Cu+2].[Cu+2].[O-]C1C=C(C=CC=1N=NC1C(=CC2C=C(C=CC=2C=1[O-])S([O-])(=O)=O)S([O-])(=O)=O)N=N(=O)C1C=C([O-])C(=CC=1)N=NC1C(=CC2C=C(C=CC=2C=1[O-])S([O-])(=O)=O)S([O-])(=O)=O

> <Canonical_QSARr>
OC1C=C(C=CC=1N=NC1C(=CC2C=C(C=CC=2C=1O)S(O)(=O)=O)S(O)(=O)=O)N=N(=O)C1=CC(O)=C(C=C1)N=NC1C(=CC2C=C(C=CC=2C=1O)S(O)(=O)=O)S(O)(=O)=O

> <InChI_Code_QSARr>
InChI=1S/C32H22N6O17S4/c39-25-13-17(1-7-23(25)33-35-29-27(58(50,51)52)11-15-9-19(56(44,45)46)3-5-21(15)31(29)41)37-38(43)18-2-8-24(26(40)14-18)34-36-30-28(59(53,54)55)12-16-10-20(57(47,48)49)4-6-22(16)32(30)42/h1-14,39-42H,(H,44,45,46)(H,47,48,49)(H,50,51,52)(H,53,54,55)

> <InChI Key_QSARr>
LMFXRKAUSUXATP-UHFFFAOYSA-N

> <Salt_Solvent>
[Na+].[Cu+2]

> <Salt_Solvent_ID>
200

> <Number of connected components>
7

$$$$
Molecule_1865
  Mrv2316 01072400032D          

 10 10  0  0  0  0            999 V2000
    0.7145   -2.0625    0.0000 C   0  0  0  0  0  0  0  0  0  0  0  0
    0.7145   -1.2375    0.0000 C   0  0  0  0  0  0  0  0  0  0  0  0
    1.4289   -0.8250    0.0000 C   0  0  0  0  0  0  0  0  0  0  0  0
    1.4289   -0.0000    0.0000 C   0  0  0  0  0  0  0  0  0  0  0  0
    0.7145    0.4125    0.0000 C   0  0  0  0  0  0  0  0  0  0  0  0
    0.7145    1.2375    0.0000 N   0  0  0  0  0  0  0  0  0  0  0  0
   -0.0000    1.6500    0.0000 C   0  0  0  0  0  0  0  0  0  0  0  0
    1.4289    1.6500    0.0000 C   0  0  0  0  0  0  0  0  0  0  0  0
   -0.0000   -0.0000    0.0000 C   0  0  0  0  0  0  0  0  0  0  0  0
   -0.0000   -0.8250    0.0000 C   0  0  0  0  0  0  0  0  0  0  0  0
  1  2  1  0  0  0  0
  3  2  1  0  0  0  0
  4  3  2  0  0  0  0
  5  4  1  0  0  0  0
  5  6  1  0  0  0  0
  6  7  1  0  0  0  0
  6  8  1  0  0  0  0
  9  5  2  0  0  0  0
 10  9  1  0  0  0  0
  2 10  2  0  0  0  0
M  END
> <RowID>
1865

> <Original_SMILES>
CC1C=CC(=CC=1)N(C)C

> <Canonical_QSARr>
CC1C=CC(=CC=1)N(C)C

> <InChI_Code_QSARr>
InChI=1S/C9H13N/c1-8-4-6-9(7-5-8)10(2)3/h4-7H,1-3H3

> <InChI Key_QSARr>
GYVGXEWAOAAJEU-UHFFFAOYSA-N

> <Salt_Solvent>


> <Salt_Solvent_ID>
0

> <Number of connected components>
1

$$$$
Molecule_1867
  Mrv2316 01072400032D          

 28 30  0  0  0  0            999 V2000
   -0.2357   -6.8652    0.0000 C   0  0  0  0  0  0  0  0  0  0  0  0
    0.4788   -6.4527    0.0000 N   0  0  0  0  0  0  0  0  0  0  0  0
    0.4788   -5.6277    0.0000 C   0  0  0  0  0  0  0  0  0  0  0  0
    1.1932   -5.2152    0.0000 C   0  0  0  0  0  0  0  0  0  0  0  0
    1.1932   -4.3902    0.0000 C   0  0  0  0  0  0  0  0  0  0  0  0
    0.4788   -3.9777    0.0000 C   0  0  0  0  0  0  0  0  0  0  0  0
    0.4788   -3.1527    0.0000 C   0  0  0  0  0  0  0  0  0  0  0  0
    1.3038   -3.1527    0.0000 O   0  0  0  0  0  0  0  0  0  0  0  0
    0.4788   -2.3277    0.0000 C   0  0  0  0  0  0  0  0  0  0  0  0
    1.1932   -1.9152    0.0000 C   0  0  0  0  0  0  0  0  0  0  0  0
    1.1932   -1.0902    0.0000 C   0  0  0  0  0  0  0  0  0  0  0  0
    0.4788   -0.6777    0.0000 C   0  0  0  0  0  0  0  0  0  0  0  0
    0.4788    0.1473    0.0000 N   0  0  0  0  0  0  0  0  0  0  0  0
   -0.2357    0.5598    0.0000 C   0  0  0  0  0  0  0  0  0  0  0  0
    1.1932    0.5598    0.0000 C   0  0  0  0  0  0  0  0  0  0  0  0
   -0.2357   -1.0902    0.0000 C   0  0  0  0  0  0  0  0  0  0  0  0
   -0.2357   -1.9152    0.0000 C   0  0  0  0  0  0  0  0  0  0  0  0
   -0.3462   -3.1527    0.0000 C   0  0  0  0  0  0  0  0  0  0  0  0
   -0.7587   -2.4382    0.0000 C   0  0  0  0  0  0  0  0  0  0  0  0
   -1.5837   -2.4382    0.0000 C   0  0  0  0  0  0  0  0  0  0  0  0
   -1.9962   -3.1527    0.0000 C   0  0  0  0  0  0  0  0  0  0  0  0
   -2.8212   -3.1527    0.0000 N   0  0  0  0  0  0  0  0  0  0  0  0
   -3.2337   -3.8671    0.0000 C   0  0  0  0  0  0  0  0  0  0  0  0
   -3.2337   -2.4382    0.0000 C   0  0  0  0  0  0  0  0  0  0  0  0
   -1.5837   -3.8671    0.0000 C   0  0  0  0  0  0  0  0  0  0  0  0
   -0.7587   -3.8671    0.0000 C   0  0  0  0  0  0  0  0  0  0  0  0
   -0.2357   -4.3902    0.0000 C   0  0  0  0  0  0  0  0  0  0  0  0
   -0.2357   -5.2152    0.0000 C   0  0  0  0  0  0  0  0  0  0  0  0
  1  2  1  0  0  0  0
  2  3  1  0  0  0  0
  4  3  1  0  0  0  0
  5  4  2  0  0  0  0
  6  5  1  0  0  0  0
  6  7  1  0  0  0  0
  7  8  1  0  0  0  0
  7  9  1  0  0  0  0
 10  9  1  0  0  0  0
 11 10  2  0  0  0  0
 12 11  1  0  0  0  0
 12 13  1  0  0  0  0
 13 14  1  0  0  0  0
 13 15  1  0  0  0  0
 16 12  2  0  0  0  0
 17 16  1  0  0  0  0
  9 17  2  0  0  0  0
  7 18  1  0  0  0  0
 19 18  1  0  0  0  0
 20 19  2  0  0  0  0
 21 20  1  0  0  0  0
 21 22  1  0  0  0  0
 22 23  1  0  0  0  0
 22 24  1  0  0  0  0
 25 21  2  0  0  0  0
 26 25  1  0  0  0  0
 18 26  2  0  0  0  0
 27  6  2  0  0  0  0
 28 27  1  0  0  0  0
  3 28  2  0  0  0  0
M  END
> <RowID>
1867

> <Original_SMILES>
CNC1C=CC(=CC=1)C(O)(C1C=CC(=CC=1)N(C)C)C1C=CC(=CC=1)N(C)C

> <Canonical_QSARr>
CNC1C=CC(=CC=1)C(O)(C1C=CC(=CC=1)N(C)C)C1C=CC(=CC=1)N(C)C

> <InChI_Code_QSARr>
InChI=1S/C24H29N3O/c1-25-21-12-6-18(7-13-21)24(28,19-8-14-22(15-9-19)26(2)3)20-10-16-23(17-11-20)27(4)5/h6-17,25,28H,1-5H3

> <InChI Key_QSARr>
MAGJOSJRYKEYAZ-UHFFFAOYSA-N

> <Salt_Solvent>


> <Salt_Solvent_ID>
0

> <Number of connected components>
1

$$$$
Molecule_1868
  Mrv2316 01072400032D          

 44 45  0  0  0  0            999 V2000
    4.1863   -5.4656    0.0000 C   0  0  0  0  0  0  0  0  0  0  0  0
    3.3613   -5.4656    0.0000 N   0  3  0  0  0  0  0  0  0  0  0  0
    3.3613   -4.6406    0.0000 C   0  0  0  0  0  0  0  0  0  0  0  0
    2.6468   -4.2281    0.0000 C   0  0  0  0  0  0  0  0  0  0  0  0
    2.6468   -3.4031    0.0000 O   0  0  0  0  0  0  0  0  0  0  0  0
    1.9323   -2.9906    0.0000 C   0  0  0  0  0  0  0  0  0  0  0  0
    1.9323   -2.1656    0.0000 C   0  0  0  0  0  0  0  0  0  0  0  0
    1.2179   -1.7531    0.0000 C   0  0  0  0  0  0  0  0  0  0  0  0
    0.5034   -1.3406    0.0000 N   0  0  0  0  0  0  0  0  0  0  0  0
    2.6468   -1.7531    0.0000 C   0  0  0  0  0  0  0  0  0  0  0  0
    2.6468   -0.9281    0.0000 C   0  0  0  0  0  0  0  0  0  0  0  0
    3.3613   -0.5156    0.0000 C   0  0  0  0  0  0  0  0  0  0  0  0
    3.3613    0.3094    0.0000 C   0  0  0  0  0  0  0  0  0  0  0  0
    2.6468    0.7219    0.0000 C   0  0  0  0  0  0  0  0  0  0  0  0
    2.6468    1.5469    0.0000 N   0  0  0  0  0  0  0  0  0  0  0  0
    1.9323    1.9594    0.0000 C   0  0  0  0  0  0  0  0  0  0  0  0
    1.9323    2.7844    0.0000 C   0  0  0  0  0  0  0  0  0  0  0  0
    3.3613    1.9594    0.0000 C   0  0  0  0  0  0  0  0  0  0  0  0
    3.3613    2.7844    0.0000 C   0  0  0  0  0  0  0  0  0  0  0  0
    1.9323    0.3094    0.0000 C   0  0  0  0  0  0  0  0  0  0  0  0
    1.9323   -0.5156    0.0000 C   0  0  0  0  0  0  0  0  0  0  0  0
    1.2179   -3.4031    0.0000 O   0  0  0  0  0  0  0  0  0  0  0  0
    3.3613   -6.2906    0.0000 C   0  0  0  0  0  0  0  0  0  0  0  0
    4.0757   -6.7031    0.0000 C   0  0  0  0  0  0  0  0  0  0  0  0
    4.0757   -7.5281    0.0000 C   0  0  0  0  0  0  0  0  0  0  0  0
    4.7902   -7.9406    0.0000 O   0  0  0  0  0  0  0  0  0  0  0  0
    4.7902   -8.7656    0.0000 C   0  0  0  0  0  0  0  0  0  0  0  0
    5.5047   -9.1781    0.0000 C   0  0  0  0  0  0  0  0  0  0  0  0
    6.2192   -8.7656    0.0000 C   0  0  0  0  0  0  0  0  0  0  0  0
    6.9336   -8.3531    0.0000 N   0  0  0  0  0  0  0  0  0  0  0  0
    5.5047  -10.0031    0.0000 C   0  0  0  0  0  0  0  0  0  0  0  0
    6.2192  -10.4156    0.0000 C   0  0  0  0  0  0  0  0  0  0  0  0
    6.2192  -11.2406    0.0000 C   0  0  0  0  0  0  0  0  0  0  0  0
    6.9336  -11.6531    0.0000 C   0  0  0  0  0  0  0  0  0  0  0  0
    7.6481  -11.2406    0.0000 C   0  0  0  0  0  0  0  0  0  0  0  0
    8.3626  -11.6531    0.0000 N   0  0  0  0  0  0  0  0  0  0  0  0
    8.3626  -12.4781    0.0000 C   0  0  0  0  0  0  0  0  0  0  0  0
    9.0770  -12.8906    0.0000 C   0  0  0  0  0  0  0  0  0  0  0  0
    9.0770  -11.2406    0.0000 C   0  0  0  0  0  0  0  0  0  0  0  0
    9.7915  -11.6531    0.0000 C   0  0  0  0  0  0  0  0  0  0  0  0
    7.6481  -10.4156    0.0000 C   0  0  0  0  0  0  0  0  0  0  0  0
    6.9336  -10.0031    0.0000 C   0  0  0  0  0  0  0  0  0  0  0  0
    4.0757   -9.1781    0.0000 O   0  0  0  0  0  0  0  0  0  0  0  0
    2.5363   -5.4656    0.0000 C   0  0  0  0  0  0  0  0  0  0  0  0
  1  2  1  0  0  0  0
  2  3  1  0  0  0  0
  3  4  1  0  0  0  0
  4  5  1  0  0  0  0
  5  6  1  0  0  0  0
  6  7  1  0  0  0  0
  7  8  1  0  0  0  0
  8  9  3  0  0  0  0
  7 10  2  0  0  0  0
 10 11  1  4  0  0  0
 12 11  2  0  0  0  0
 13 12  1  0  0  0  0
 14 13  2  0  0  0  0
 14 15  1  0  0  0  0
 15 16  1  0  0  0  0
 16 17  1  0  0  0  0
 15 18  1  0  0  0  0
 18 19  1  0  0  0  0
 20 14  1  0  0  0  0
 21 20  2  0  0  0  0
 11 21  1  0  0  0  0
  6 22  2  0  0  0  0
  2 23  1  0  0  0  0
 23 24  1  0  0  0  0
 24 25  1  0  0  0  0
 25 26  1  0  0  0  0
 26 27  1  0  0  0  0
 27 28  1  0  0  0  0
 28 29  1  0  0  0  0
 29 30  3  0  0  0  0
 28 31  2  0  0  0  0
 31 32  1  4  0  0  0
 33 32  2  0  0  0  0
 34 33  1  0  0  0  0
 35 34  2  0  0  0  0
 35 36  1  0  0  0  0
 36 37  1  0  0  0  0
 37 38  1  0  0  0  0
 36 39  1  0  0  0  0
 39 40  1  0  0  0  0
 41 35  1  0  0  0  0
 42 41  2  0  0  0  0
 32 42  1  0  0  0  0
 27 43  2  0  0  0  0
  2 44  1  0  0  0  0
M  CHG  1   2   1
M  END
> <RowID>
1868

> <Original_SMILES>
[Cl-].C[N+](C)(CCCOC(=O)C(=CC1C=CC(=CC=1)N(CC)CC)C#N)CCOC(=O)C(=CC1C=CC(=CC=1)N(CC)CC)C#N

> <Canonical_QSARr>
C[N+](C)(CCCOC(=O)C(=CC1C=CC(=CC=1)N(CC)CC)C#N)CCOC(=O)C(=CC1C=CC(=CC=1)N(CC)CC)C#N

> <InChI_Code_QSARr>
InChI=1S/C35H46N5O4/c1-7-38(8-2)32-16-12-28(13-17-32)24-30(26-36)34(41)43-22-11-20-40(5,6)21-23-44-35(42)31(27-37)25-29-14-18-33(19-15-29)39(9-3)10-4/h12-19,24-25H,7-11,20-23H2,1-6H3/q+1

> <InChI Key_QSARr>
LOIBKNKBFZKAQY-UHFFFAOYSA-N

> <Salt_Solvent>
[Cl-]

> <Salt_Solvent_ID>
170

> <Number of connected components>
2

$$$$
Molecule_1869
  Mrv2316 01072400032D          

 29 28  0  0  0  0            999 V2000
   11.6605    7.5572    0.0000 C   0  0  0  0  0  0  0  0  0  0  0  0
   12.3750    7.1447    0.0000 C   0  0  0  0  0  0  0  0  0  0  0  0
   13.0895    7.5572    0.0000 C   0  0  0  0  0  0  0  0  0  0  0  0
   13.8039    7.1447    0.0000 C   0  0  0  0  0  0  0  0  0  0  0  0
   14.5184    7.5572    0.0000 C   0  0  0  0  0  0  0  0  0  0  0  0
   15.2329    7.1447    0.0000 C   0  0  0  0  0  0  0  0  0  0  0  0
   15.9473    7.5572    0.0000 O   0  0  0  0  0  0  0  0  0  0  0  0
   16.6618    7.1447    0.0000 C   0  0  0  0  0  0  0  0  0  0  0  0
   16.6618    6.3197    0.0000 O   0  0  0  0  0  0  0  0  0  0  0  0
   17.3763    7.5572    0.0000 C   0  0  0  0  0  0  0  0  0  0  0  0
   18.0907    7.1447    0.0000 C   0  0  0  0  0  0  0  0  0  0  0  0
   18.8052    7.5572    0.0000 C   0  0  0  0  0  0  0  0  0  0  0  0
   19.5197    7.1447    0.0000 C   0  0  0  0  0  0  0  0  0  0  0  0
   20.2342    7.5572    0.0000 C   0  0  0  0  0  0  0  0  0  0  0  0
   20.9486    7.1447    0.0000 C   0  0  0  0  0  0  0  0  0  0  0  0
   21.6631    7.5572    0.0000 C   0  0  0  0  0  0  0  0  0  0  0  0
   22.3776    7.1447    0.0000 C   0  0  0  0  0  0  0  0  0  0  0  0
   22.3776    6.3197    0.0000 O   0  0  0  0  0  0  0  0  0  0  0  0
   23.0920    7.5572    0.0000 O   0  0  0  0  0  0  0  0  0  0  0  0
   23.8065    7.1447    0.0000 C   0  0  0  0  0  0  0  0  0  0  0  0
   24.5210    7.5572    0.0000 C   0  0  0  0  0  0  0  0  0  0  0  0
   25.2355    7.1447    0.0000 C   0  0  0  0  0  0  0  0  0  0  0  0
   25.9499    7.5572    0.0000 C   0  0  0  0  0  0  0  0  0  0  0  0
   26.6644    7.1447    0.0000 C   0  0  0  0  0  0  0  0  0  0  0  0
   27.3789    7.5572    0.0000 C   0  0  0  0  0  0  0  0  0  0  0  0
   24.5210    8.3822    0.0000 C   0  0  0  0  0  0  0  0  0  0  0  0
   25.2355    8.7947    0.0000 C   0  0  0  0  0  0  0  0  0  0  0  0
   14.5184    8.3822    0.0000 C   0  0  0  0  0  0  0  0  0  0  0  0
   15.2329    8.7947    0.0000 C   0  0  0  0  0  0  0  0  0  0  0  0
  1  2  1  0  0  0  0
  2  3  1  0  0  0  0
  3  4  1  0  0  0  0
  4  5  1  0  0  0  0
  5  6  1  0  0  0  0
  6  7  1  0  0  0  0
  7  8  1  0  0  0  0
  8  9  2  0  0  0  0
  8 10  1  0  0  0  0
 10 11  1  0  0  0  0
 11 12  1  0  0  0  0
 12 13  1  0  0  0  0
 13 14  1  0  0  0  0
 14 15  1  0  0  0  0
 15 16  1  0  0  0  0
 16 17  1  0  0  0  0
 17 18  2  0  0  0  0
 17 19  1  0  0  0  0
 19 20  1  0  0  0  0
 20 21  1  0  0  0  0
 21 22  1  0  0  0  0
 22 23  1  0  0  0  0
 23 24  1  0  0  0  0
 24 25  1  0  0  0  0
 21 26  1  0  0  0  0
 26 27  1  0  0  0  0
  5 28  1  0  0  0  0
 28 29  1  0  0  0  0
M  END
> <RowID>
1869

> <Original_SMILES>
CCCCC(COC(=O)CCCCCCCC(=O)OCC(CCCC)CC)CC

> <Canonical_QSARr>
CCCCC(COC(=O)CCCCCCCC(=O)OCC(CCCC)CC)CC

> <InChI_Code_QSARr>
InChI=1S/C25H48O4/c1-5-9-16-22(7-3)20-28-24(26)18-14-12-11-13-15-19-25(27)29-21-23(8-4)17-10-6-2/h22-23H,5-21H2,1-4H3

> <InChI Key_QSARr>
ZDWGXBPVPXVXMQ-UHFFFAOYSA-N

> <Salt_Solvent>


> <Salt_Solvent_ID>
0

> <Number of connected components>
1

$$$$
Molecule_1870
  Mrv2316 01072400032D          

  9  8  0  0  0  0            999 V2000
    1.7605    1.8414    0.0000 C   0  0  0  0  0  0  0  0  0  0  0  0
    2.4750    1.4289    0.0000 O   0  0  0  0  0  0  0  0  0  0  0  0
    3.1895    1.8414    0.0000 C   0  0  0  0  0  0  0  0  0  0  0  0
    3.9039    1.4289    0.0000 C   0  0  0  0  0  0  0  0  0  0  0  0
    3.9039    0.6039    0.0000 C   0  0  0  0  0  0  0  0  0  0  0  0
    4.6184    1.8414    0.0000 O   0  0  0  0  0  0  0  0  0  0  0  0
    5.3329    1.4289    0.0000 C   0  0  0  0  0  0  0  0  0  0  0  0
    6.0474    1.8414    0.0000 C   0  0  0  0  0  0  0  0  0  0  0  0
    5.3329    0.6039    0.0000 O   0  0  0  0  0  0  0  0  0  0  0  0
  1  2  1  0  0  0  0
  2  3  1  0  0  0  0
  3  4  1  0  0  0  0
  4  5  1  0  0  0  0
  4  6  1  0  0  0  0
  6  7  1  0  0  0  0
  7  8  1  0  0  0  0
  7  9  2  0  0  0  0
M  END
> <RowID>
1870

> <Original_SMILES>
COCC(C)OC(C)=O

> <Canonical_QSARr>
COCC(C)OC(C)=O

> <InChI_Code_QSARr>
InChI=1S/C6H12O3/c1-5(4-8-3)9-6(2)7/h5H,4H2,1-3H3

> <InChI Key_QSARr>
LLHKCFNBLRBOGN-UHFFFAOYSA-N

> <Salt_Solvent>


> <Salt_Solvent_ID>
0

> <Number of connected components>
1

$$$$
Molecule_1871
  Mrv2316 01072400032D          

  9  9  0  0  0  0            999 V2000
    1.1114    3.3000    0.0000 O   0  0  0  0  0  0  0  0  0  0  0  0
    1.1114    2.4750    0.0000 C   0  0  0  0  0  0  0  0  0  0  0  0
    0.3969    2.0625    0.0000 C   0  0  0  0  0  0  0  0  0  0  0  0
    0.3969    1.2375    0.0000 N   0  0  0  0  0  0  0  0  0  0  0  0
   -0.3175    0.8250    0.0000 C   0  0  0  0  0  0  0  0  0  0  0  0
   -0.3175   -0.0000    0.0000 C   0  0  0  0  0  0  0  0  0  0  0  0
    0.3969   -0.4125    0.0000 O   0  0  0  0  0  0  0  0  0  0  0  0
    1.1114    0.0000    0.0000 C   0  0  0  0  0  0  0  0  0  0  0  0
    1.1114    0.8250    0.0000 C   0  0  0  0  0  0  0  0  0  0  0  0
  1  2  1  0  0  0  0
  2  3  1  0  0  0  0
  3  4  1  0  0  0  0
  5  4  1  0  0  0  0
  6  5  1  0  0  0  0
  7  6  1  0  0  0  0
  8  7  1  0  0  0  0
  9  8  1  0  0  0  0
  4  9  1  0  0  0  0
M  END
> <RowID>
1871

> <Original_SMILES>
OCCN1CCOCC1

> <Canonical_QSARr>
OCCN1CCOCC1

> <InChI_Code_QSARr>
InChI=1S/C6H13NO2/c8-4-1-7-2-5-9-6-3-7/h8H,1-6H2

> <InChI Key_QSARr>
KKFDCBRMNNSAAW-UHFFFAOYSA-N

> <Salt_Solvent>


> <Salt_Solvent_ID>
0

> <Number of connected components>
1

$$$$
Molecule_1872
  Mrv2316 01072400032D          

 34 33  0  0  0  0            999 V2000
   14.6586    9.2881    0.0000 C   0  0  0  0  0  0  0  0  0  0  0  0
   15.3730    9.7006    0.0000 C   0  0  0  0  0  0  0  0  0  0  0  0
   15.3730   10.5256    0.0000 C   0  0  0  0  0  0  0  0  0  0  0  0
   16.0875    9.2881    0.0000 C   0  0  0  0  0  0  0  0  0  0  0  0
   16.8020    9.7006    0.0000 C   0  0  0  0  0  0  0  0  0  0  0  0
   17.5164    9.2881    0.0000 C   0  0  0  0  0  0  0  0  0  0  0  0
   18.2309    9.7006    0.0000 C   0  0  0  0  0  0  0  0  0  0  0  0
   18.9454    9.2881    0.0000 C   0  0  0  0  0  0  0  0  0  0  0  0
   19.6599    9.7006    0.0000 C   0  0  0  0  0  0  0  0  0  0  0  0
   20.3743    9.2881    0.0000 C   0  0  0  0  0  0  0  0  0  0  0  0
   21.0888    9.7006    0.0000 O   0  0  0  0  0  0  0  0  0  0  0  0
   21.8033    9.2881    0.0000 C   0  0  0  0  0  0  0  0  0  0  0  0
   21.8033    8.4631    0.0000 O   0  0  0  0  0  0  0  0  0  0  0  0
   22.5177    9.7006    0.0000 C   0  0  0  0  0  0  0  0  0  0  0  0
   23.2322    9.2881    0.0000 C   0  0  0  0  0  0  0  0  0  0  0  0
   23.9467    9.7006    0.0000 C   0  0  0  0  0  0  0  0  0  0  0  0
   24.6612    9.2881    0.0000 C   0  0  0  0  0  0  0  0  0  0  0  0
   25.3756    9.7006    0.0000 C   0  0  0  0  0  0  0  0  0  0  0  0
   26.0901    9.2881    0.0000 C   0  0  0  0  0  0  0  0  0  0  0  0
   26.8046    9.7006    0.0000 C   0  0  0  0  0  0  0  0  0  0  0  0
   27.5190    9.2881    0.0000 C   0  0  0  0  0  0  0  0  0  0  0  0
   28.2335    9.7006    0.0000 C   0  0  0  0  0  0  0  0  0  0  0  0
   28.2335   10.5256    0.0000 O   0  0  0  0  0  0  0  0  0  0  0  0
   28.9480    9.2881    0.0000 O   0  0  0  0  0  0  0  0  0  0  0  0
   29.6625    9.7006    0.0000 C   0  0  0  0  0  0  0  0  0  0  0  0
   30.3769    9.2881    0.0000 C   0  0  0  0  0  0  0  0  0  0  0  0
   31.0914    9.7006    0.0000 C   0  0  0  0  0  0  0  0  0  0  0  0
   31.8059    9.2881    0.0000 C   0  0  0  0  0  0  0  0  0  0  0  0
   32.5203    9.7006    0.0000 C   0  0  0  0  0  0  0  0  0  0  0  0
   33.2348    9.2881    0.0000 C   0  0  0  0  0  0  0  0  0  0  0  0
   33.9493    9.7006    0.0000 C   0  0  0  0  0  0  0  0  0  0  0  0
   34.6638    9.2881    0.0000 C   0  0  0  0  0  0  0  0  0  0  0  0
   35.3782    9.7006    0.0000 C   0  0  0  0  0  0  0  0  0  0  0  0
   34.6638    8.4631    0.0000 C   0  0  0  0  0  0  0  0  0  0  0  0
  1  2  1  0  0  0  0
  2  3  1  0  0  0  0
  2  4  1  0  0  0  0
  4  5  1  0  0  0  0
  5  6  1  0  0  0  0
  6  7  1  0  0  0  0
  7  8  1  0  0  0  0
  8  9  1  0  0  0  0
  9 10  1  0  0  0  0
 10 11  1  0  0  0  0
 11 12  1  0  0  0  0
 12 13  2  0  0  0  0
 12 14  1  0  0  0  0
 14 15  1  0  0  0  0
 15 16  1  0  0  0  0
 16 17  1  0  0  0  0
 17 18  1  0  0  0  0
 18 19  1  0  0  0  0
 19 20  1  0  0  0  0
 20 21  1  0  0  0  0
 21 22  1  0  0  0  0
 22 23  2  0  0  0  0
 22 24  1  0  0  0  0
 24 25  1  0  0  0  0
 25 26  1  0  0  0  0
 26 27  1  0  0  0  0
 27 28  1  0  0  0  0
 28 29  1  0  0  0  0
 29 30  1  0  0  0  0
 30 31  1  0  0  0  0
 31 32  1  0  0  0  0
 32 33  1  0  0  0  0
 32 34  1  0  0  0  0
M  END
> <RowID>
1872

> <Original_SMILES>
CC(C)CCCCCCCOC(=O)CCCCCCCCC(=O)OCCCCCCCC(C)C

> <Canonical_QSARr>
CC(C)CCCCCCCOC(=O)CCCCCCCCC(=O)OCCCCCCCC(C)C

> <InChI_Code_QSARr>
InChI=1S/C30H58O4/c1-27(2)21-15-9-7-13-19-25-33-29(31)23-17-11-5-6-12-18-24-30(32)34-26-20-14-8-10-16-22-28(3)4/h27-28H,5-26H2,1-4H3

> <InChI Key_QSARr>
OAXZVLMNNOOMGN-UHFFFAOYSA-N

> <Salt_Solvent>


> <Salt_Solvent_ID>
0

> <Number of connected components>
1

$$$$
Molecule_1873
  Mrv2316 01072400032D          

 13 12  0  0  0  0            999 V2000
   -1.0974    1.0164    0.0000 O   0  0  0  0  0  0  0  0  0  0  0  0
   -0.3829    1.4289    0.0000 S   0  0  0  0  0  0  0  0  0  0  0  0
    0.0296    0.7144    0.0000 O   0  0  0  0  0  0  0  0  0  0  0  0
   -0.7954    2.1434    0.0000 O   0  0  0  0  0  0  0  0  0  0  0  0
    0.3316    1.8414    0.0000 O   0  0  0  0  0  0  0  0  0  0  0  0
    1.0460    1.4289    0.0000 C   0  0  0  0  0  0  0  0  0  0  0  0
    1.7605    1.8414    0.0000 C   0  0  0  0  0  0  0  0  0  0  0  0
    2.4750    1.4289    0.0000 C   0  0  0  0  0  0  0  0  0  0  0  0
    3.1895    1.8414    0.0000 C   0  0  0  0  0  0  0  0  0  0  0  0
    3.9039    1.4289    0.0000 C   0  0  0  0  0  0  0  0  0  0  0  0
    4.6184    1.8414    0.0000 C   0  0  0  0  0  0  0  0  0  0  0  0
    5.3329    1.4289    0.0000 C   0  0  0  0  0  0  0  0  0  0  0  0
    6.0473    1.8414    0.0000 C   0  0  0  0  0  0  0  0  0  0  0  0
  1  2  1  0  0  0  0
  2  3  2  0  0  0  0
  2  4  2  0  0  0  0
  2  5  1  0  0  0  0
  5  6  1  0  0  0  0
  6  7  1  0  0  0  0
  7  8  1  0  0  0  0
  8  9  1  0  0  0  0
  9 10  1  0  0  0  0
 10 11  1  0  0  0  0
 11 12  1  0  0  0  0
 12 13  1  0  0  0  0
M  END
> <RowID>
1873

> <Original_SMILES>
[Na+].CCCCCCCCOS([O-])(=O)=O

> <Canonical_QSARr>
CCCCCCCCOS(O)(=O)=O

> <InChI_Code_QSARr>
InChI=1S/C8H18O4S/c1-2-3-4-5-6-7-8-12-13(9,10)11/h2-8H2,1H3,(H,9,10,11)

> <InChI Key_QSARr>
UZZYXUGECOQHPU-UHFFFAOYSA-N

> <Salt_Solvent>
[Na+]

> <Salt_Solvent_ID>
110

> <Number of connected components>
2

$$$$
Molecule_1875
  Mrv2316 01072400032D          

  8  7  0  0  0  0            999 V2000
   -0.1914    0.7145    0.0000 C   0  0  0  0  0  0  0  0  0  0  0  0
    0.5230    1.1270    0.0000 C   0  0  0  0  0  0  0  0  0  0  0  0
    0.5230    1.9520    0.0000 O   0  0  0  0  0  0  0  0  0  0  0  0
    1.2375    0.7145    0.0000 C   0  0  0  0  0  0  0  0  0  0  0  0
    1.9520    1.1270    0.0000 C   0  0  0  0  0  0  0  0  0  0  0  0
    1.9520    1.9520    0.0000 O   0  0  0  0  0  0  0  0  0  0  0  0
    2.6664    0.7145    0.0000 O   0  0  0  0  0  0  0  0  0  0  0  0
    3.3809    1.1270    0.0000 C   0  0  0  0  0  0  0  0  0  0  0  0
  1  2  1  0  0  0  0
  2  3  2  0  0  0  0
  2  4  1  0  0  0  0
  4  5  1  0  0  0  0
  5  6  2  0  0  0  0
  5  7  1  0  0  0  0
  7  8  1  0  0  0  0
M  END
> <RowID>
1875

> <Original_SMILES>
CC(=O)CC(=O)OC

> <Canonical_QSARr>
CC(=O)CC(=O)OC

> <InChI_Code_QSARr>
InChI=1S/C5H8O3/c1-4(6)3-5(7)8-2/h3H2,1-2H3

> <InChI Key_QSARr>
WRQNANDWMGAFTP-UHFFFAOYSA-N

> <Salt_Solvent>


> <Salt_Solvent_ID>
0

> <Number of connected components>
1

$$$$
Molecule_1876
  Mrv2316 01072400032D          

 12 12  0  0  0  0            999 V2000
    1.1908   -2.7500    0.0000 N   0  0  0  0  0  0  0  0  0  0  0  0
    1.1908   -1.9250    0.0000 C   0  0  0  0  0  0  0  0  0  0  0  0
    1.9052   -1.5125    0.0000 C   0  0  0  0  0  0  0  0  0  0  0  0
    1.9052   -0.6875    0.0000 C   0  0  0  0  0  0  0  0  0  0  0  0
    1.1908   -0.2750    0.0000 C   0  0  0  0  0  0  0  0  0  0  0  0
    1.1908    0.5500    0.0000 O   0  0  0  0  0  0  0  0  0  0  0  0
    0.4763    0.9625    0.0000 C   0  0  0  0  0  0  0  0  0  0  0  0
    0.4763    1.7875    0.0000 C   0  0  0  0  0  0  0  0  0  0  0  0
   -0.2382    2.2000    0.0000 O   0  0  0  0  0  0  0  0  0  0  0  0
    0.4763   -0.6875    0.0000 C   0  0  0  0  0  0  0  0  0  0  0  0
   -0.2382   -0.2750    0.0000 N   0  0  0  0  0  0  0  0  0  0  0  0
    0.4763   -1.5125    0.0000 C   0  0  0  0  0  0  0  0  0  0  0  0
  1  2  1  0  0  0  0
  3  2  1  0  0  0  0
  4  3  2  0  0  0  0
  5  4  1  0  0  0  0
  5  6  1  0  0  0  0
  6  7  1  0  0  0  0
  7  8  1  0  0  0  0
  8  9  1  0  0  0  0
 10  5  2  0  0  0  0
 10 11  1  0  0  0  0
 12 10  1  0  0  0  0
  2 12  2  0  0  0  0
M  END
> <RowID>
1876

> <Original_SMILES>
NC1=CC(N)=C(C=C1)OCCO.OS(O)(=O)=O

> <Canonical_QSARr>
NC1=CC(N)=C(C=C1)OCCO

> <InChI_Code_QSARr>
InChI=1S/C8H12N2O2/c9-6-1-2-8(7(10)5-6)12-4-3-11/h1-2,5,11H,3-4,9-10H2

> <InChI Key_QSARr>
WCPGNFONICRLCL-UHFFFAOYSA-N

> <Salt_Solvent>
OS(=O)(=O)O

> <Salt_Solvent_ID>
2042

> <Number of connected components>
2

$$$$
Molecule_1877
  Mrv2316 01072400032D          

  7  7  0  0  0  0            999 V2000
    0.9803   -0.1553    0.0000 C   0  0  0  0  0  0  0  0  0  0  0  0
    1.2352    0.6294    0.0000 C   0  0  0  0  0  0  0  0  0  0  0  0
    0.5678    1.1143    0.0000 C   0  0  0  0  0  0  0  0  0  0  0  0
    0.5678    1.9393    0.0000 O   0  0  0  0  0  0  0  0  0  0  0  0
   -0.0997    0.6294    0.0000 N   0  0  0  0  0  0  0  0  0  0  0  0
    0.1553   -0.1553    0.0000 N   0  0  0  0  0  0  0  0  0  0  0  0
    1.4652   -0.8227    0.0000 C   0  0  0  0  0  0  0  0  0  0  0  0
  2  1  1  0  0  0  0
  3  2  1  0  0  0  0
  3  4  2  0  0  0  0
  5  3  1  0  0  0  0
  6  5  2  0  0  0  0
  1  6  1  0  0  0  0
  1  7  1  0  0  0  0
M  END
> <RowID>
1877

> <Original_SMILES>
CC1CC(=O)NN=1

> <Canonical_QSARr>
CC1CC(=O)N=N1

> <InChI_Code_QSARr>
InChI=1S/C4H6N2O/c1-3-2-4(7)6-5-3/h3H,2H2,1H3

> <InChI Key_QSARr>
AIMMGJXCJTVLHA-UHFFFAOYSA-N

> <Salt_Solvent>


> <Salt_Solvent_ID>
0

> <Number of connected components>
1

$$$$
Molecule_1879
  Mrv2316 01072400032D          

 11 11  0  0  0  0            999 V2000
    0.7145   -2.2875    0.0000 C   0  0  0  0  0  0  0  0  0  0  0  0
    0.7145   -1.4625    0.0000 C   0  0  0  0  0  0  0  0  0  0  0  0
    1.4290   -1.0500    0.0000 C   0  0  0  0  0  0  0  0  0  0  0  0
    1.4290   -0.2250    0.0000 C   0  0  0  0  0  0  0  0  0  0  0  0
    0.7145    0.1875    0.0000 C   0  0  0  0  0  0  0  0  0  0  0  0
    0.7145    1.0125    0.0000 S   0  0  0  0  0  0  0  0  0  0  0  0
    0.7145    1.8375    0.0000 N   0  0  0  0  0  0  0  0  0  0  0  0
    1.5395    1.0125    0.0000 O   0  0  0  0  0  0  0  0  0  0  0  0
   -0.1105    1.0125    0.0000 O   0  0  0  0  0  0  0  0  0  0  0  0
    0.0000   -0.2250    0.0000 C   0  0  0  0  0  0  0  0  0  0  0  0
    0.0000   -1.0500    0.0000 C   0  0  0  0  0  0  0  0  0  0  0  0
  1  2  1  0  0  0  0
  3  2  2  0  0  0  0
  4  3  1  0  0  0  0
  5  4  2  0  0  0  0
  5  6  1  0  0  0  0
  6  7  1  0  0  0  0
  6  8  2  0  0  0  0
  6  9  2  0  0  0  0
 10  5  1  0  0  0  0
 11 10  2  0  0  0  0
  2 11  1  0  0  0  0
M  END
> <RowID>
1879

> <Original_SMILES>
CC1=CC=C(C=C1)S(N)(=O)=O

> <Canonical_QSARr>
CC1=CC=C(C=C1)S(N)(=O)=O

> <InChI_Code_QSARr>
InChI=1S/C7H9NO2S/c1-6-2-4-7(5-3-6)11(8,9)10/h2-5H,1H3,(H2,8,9,10)

> <InChI Key_QSARr>
LMYRWZFENFIFIT-UHFFFAOYSA-N

> <Salt_Solvent>


> <Salt_Solvent_ID>
0

> <Number of connected components>
1

$$$$
Molecule_1880
  Mrv2316 01072400032D          

 47 46  0  0  0  0            999 V2000
    0.8546    3.5723    0.0000 C   0  0  0  0  0  0  0  0  0  0  0  0
    0.4421    2.8579    0.0000 C   0  0  0  0  0  0  0  0  0  0  0  0
    0.8546    2.1434    0.0000 C   0  0  0  0  0  0  0  0  0  0  0  0
    1.2671    1.4289    0.0000 C   0  0  0  0  0  0  0  0  0  0  0  0
    0.8546    0.7145    0.0000 O   0  0  0  0  0  0  0  0  0  0  0  0
    0.1401    1.7309    0.0000 C   0  0  0  0  0  0  0  0  0  0  0  0
   -0.5743    2.1434    0.0000 O   0  0  0  0  0  0  0  0  0  0  0  0
   -1.2888    1.7309    0.0000 C   0  0  0  0  0  0  0  0  0  0  0  0
   -1.2888    0.9059    0.0000 O   0  0  0  0  0  0  0  0  0  0  0  0
   -2.0033    2.1434    0.0000 C   0  0  0  0  0  0  0  0  0  0  0  0
   -2.7177    1.7309    0.0000 C   0  0  0  0  0  0  0  0  0  0  0  0
   -3.4322    2.1434    0.0000 C   0  0  0  0  0  0  0  0  0  0  0  0
   -4.1467    1.7309    0.0000 C   0  0  0  0  0  0  0  0  0  0  0  0
   -4.8611    2.1434    0.0000 C   0  0  0  0  0  0  0  0  0  0  0  0
   -5.5756    1.7309    0.0000 C   0  0  0  0  0  0  0  0  0  0  0  0
   -6.2901    2.1434    0.0000 C   0  0  0  0  0  0  0  0  0  0  0  0
   -7.0046    1.7309    0.0000 C   0  0  0  0  0  0  0  0  0  0  0  0
   -7.7190    2.1434    0.0000 C   0  0  0  0  0  0  0  0  0  0  0  0
   -8.4335    1.7309    0.0000 C   0  0  0  0  0  0  0  0  0  0  0  0
   -9.1480    2.1434    0.0000 C   0  0  0  0  0  0  0  0  0  0  0  0
   -9.8624    1.7309    0.0000 C   0  0  0  0  0  0  0  0  0  0  0  0
  -10.5769    2.1434    0.0000 C   0  0  0  0  0  0  0  0  0  0  0  0
  -11.2914    1.7309    0.0000 C   0  0  0  0  0  0  0  0  0  0  0  0
  -12.0059    2.1434    0.0000 C   0  0  0  0  0  0  0  0  0  0  0  0
  -12.7203    1.7309    0.0000 C   0  0  0  0  0  0  0  0  0  0  0  0
  -13.4348    2.1434    0.0000 C   0  0  0  0  0  0  0  0  0  0  0  0
    1.5691    2.5559    0.0000 C   0  0  0  0  0  0  0  0  0  0  0  0
    2.2836    2.1434    0.0000 O   0  0  0  0  0  0  0  0  0  0  0  0
    2.9980    2.5559    0.0000 C   0  0  0  0  0  0  0  0  0  0  0  0
    2.9980    3.3809    0.0000 O   0  0  0  0  0  0  0  0  0  0  0  0
    3.7125    2.1434    0.0000 C   0  0  0  0  0  0  0  0  0  0  0  0
    4.4270    2.5559    0.0000 C   0  0  0  0  0  0  0  0  0  0  0  0
    5.1414    2.1434    0.0000 C   0  0  0  0  0  0  0  0  0  0  0  0
    5.8559    2.5559    0.0000 C   0  0  0  0  0  0  0  0  0  0  0  0
    6.5704    2.1434    0.0000 C   0  0  0  0  0  0  0  0  0  0  0  0
    7.2849    2.5559    0.0000 C   0  0  0  0  0  0  0  0  0  0  0  0
    7.9993    2.1434    0.0000 C   0  0  0  0  0  0  0  0  0  0  0  0
    8.7138    2.5559    0.0000 C   0  0  0  0  0  0  0  0  0  0  0  0
    9.4283    2.1434    0.0000 C   0  0  0  0  0  0  0  0  0  0  0  0
   10.1427    2.5559    0.0000 C   0  0  0  0  0  0  0  0  0  0  0  0
   10.1427    3.3809    0.0000 C   0  0  0  0  0  0  0  0  0  0  0  0
   10.8572    3.7934    0.0000 C   0  0  0  0  0  0  0  0  0  0  0  0
   10.8572    4.6184    0.0000 C   0  0  0  0  0  0  0  0  0  0  0  0
   11.5717    5.0309    0.0000 C   0  0  0  0  0  0  0  0  0  0  0  0
   11.5717    5.8559    0.0000 C   0  0  0  0  0  0  0  0  0  0  0  0
   12.2862    6.2684    0.0000 C   0  0  0  0  0  0  0  0  0  0  0  0
   12.2862    7.0934    0.0000 C   0  0  0  0  0  0  0  0  0  0  0  0
  1  2  1  0  0  0  0
  2  3  1  0  0  0  0
  3  4  1  0  0  0  0
  4  5  1  0  0  0  0
  3  6  1  0  0  0  0
  6  7  1  0  0  0  0
  7  8  1  0  0  0  0
  8  9  2  0  0  0  0
  8 10  1  0  0  0  0
 10 11  1  0  0  0  0
 11 12  1  0  0  0  0
 12 13  1  0  0  0  0
 13 14  1  0  0  0  0
 14 15  1  0  0  0  0
 15 16  1  0  0  0  0
 17 16  1  4  0  0  0
 17 18  2  0  0  0  0
 18 19  1  0  0  0  0
 19 20  1  0  0  0  0
 20 21  1  0  0  0  0
 21 22  1  0  0  0  0
 22 23  1  0  0  0  0
 23 24  1  0  0  0  0
 24 25  1  0  0  0  0
 25 26  1  0  0  0  0
  3 27  1  0  0  0  0
 27 28  1  0  0  0  0
 28 29  1  0  0  0  0
 29 30  2  0  0  0  0
 29 31  1  0  0  0  0
 31 32  1  0  0  0  0
 32 33  1  0  0  0  0
 33 34  1  0  0  0  0
 34 35  1  0  0  0  0
 35 36  1  0  0  0  0
 36 37  1  0  0  0  0
 38 37  1  4  0  0  0
 38 39  2  0  0  0  0
 39 40  1  0  0  0  0
 40 41  1  0  0  0  0
 41 42  1  0  0  0  0
 42 43  1  0  0  0  0
 43 44  1  0  0  0  0
 44 45  1  0  0  0  0
 45 46  1  0  0  0  0
 46 47  1  0  0  0  0
M  END
> <RowID>
1880

> <Original_SMILES>
CCC(CO)(COC(=O)CCCCCCCC=CCCCCCCCC)COC(=O)CCCCCCCC=CCCCCCCCC

> <Canonical_QSARr>
CCC(CO)(COC(=O)CCCCCCCC=CCCCCCCCC)COC(=O)CCCCCCCC=CCCCCCCCC

> <InChI_Code_QSARr>
InChI=1S/C42H78O5/c1-4-7-9-11-13-15-17-19-21-23-25-27-29-31-33-35-40(44)46-38-42(6-3,37-43)39-47-41(45)36-34-32-30-28-26-24-22-20-18-16-14-12-10-8-5-2/h19-22,43H,4-18,23-39H2,1-3H3

> <InChI Key_QSARr>
NKSZWBYBTXAALC-UHFFFAOYSA-N

> <Salt_Solvent>


> <Salt_Solvent_ID>
0

> <Number of connected components>
1

$$$$
Molecule_1881
  Mrv2316 01072400032D          

  6  5  0  0  0  0            999 V2000
   -0.1914    0.7145    0.0000 O   0  0  0  0  0  0  0  0  0  0  0  0
    0.5230    1.1270    0.0000 C   0  0  0  0  0  0  0  0  0  0  0  0
    1.2375    0.7145    0.0000 C   0  0  0  0  0  0  0  0  0  0  0  0
    1.9520    1.1270    0.0000 C   0  0  0  0  0  0  0  0  0  0  0  0
    2.6664    0.7145    0.0000 C   0  0  0  0  0  0  0  0  0  0  0  0
    3.3809    1.1270    0.0000 O   0  0  0  0  0  0  0  0  0  0  0  0
  1  2  1  0  0  0  0
  2  3  1  0  0  0  0
  3  4  1  0  0  0  0
  4  5  1  0  0  0  0
  5  6  1  0  0  0  0
M  END
> <RowID>
1881

> <Original_SMILES>
OCCCCO

> <Canonical_QSARr>
OCCCCO

> <InChI_Code_QSARr>
InChI=1S/C4H10O2/c5-3-1-2-4-6/h5-6H,1-4H2

> <InChI Key_QSARr>
WERYXYBDKMZEQL-UHFFFAOYSA-N

> <Salt_Solvent>


> <Salt_Solvent_ID>
0

> <Number of connected components>
1

$$$$
Molecule_1882
  Mrv2316 01072400032D          

 29 32  0  0  0  0            999 V2000
   -0.0000   -0.5405    0.0000 O   0  0  0  0  0  0  0  0  0  0  0  0
   -0.7145   -0.9530    0.0000 S   0  0  0  0  0  0  0  0  0  0  0  0
   -0.3020   -1.6675    0.0000 O   0  0  0  0  0  0  0  0  0  0  0  0
   -1.1270   -0.2385    0.0000 O   0  0  0  0  0  0  0  0  0  0  0  0
   -1.4289   -1.3655    0.0000 C   0  0  0  0  0  0  0  0  0  0  0  0
   -1.4289   -2.1905    0.0000 C   0  0  0  0  0  0  0  0  0  0  0  0
   -0.7145   -2.6030    0.0000 N   0  0  0  0  0  0  0  0  0  0  0  0
   -0.7145   -3.4280    0.0000 C   0  0  0  0  0  0  0  0  0  0  0  0
   -0.0000   -3.8405    0.0000 C   0  0  0  0  0  0  0  0  0  0  0  0
    0.7145   -3.4280    0.0000 C   0  0  0  0  0  0  0  0  0  0  0  0
    1.4289   -3.8405    0.0000 C   0  0  0  0  0  0  0  0  0  0  0  0
    1.4289   -4.6655    0.0000 C   0  0  0  0  0  0  0  0  0  0  0  0
    0.7145   -5.0780    0.0000 C   0  0  0  0  0  0  0  0  0  0  0  0
    0.7145   -5.9030    0.0000 O   0  0  0  0  0  0  0  0  0  0  0  0
   -0.0000   -4.6655    0.0000 C   0  0  0  0  0  0  0  0  0  0  0  0
   -0.7145   -5.0780    0.0000 C   0  0  0  0  0  0  0  0  0  0  0  0
   -0.7145   -5.9030    0.0000 O   0  0  0  0  0  0  0  0  0  0  0  0
   -1.4289   -4.6655    0.0000 C   0  0  0  0  0  0  0  0  0  0  0  0
   -1.4289   -3.8405    0.0000 C   0  0  0  0  0  0  0  0  0  0  0  0
    2.1434   -5.0780    0.0000 C   0  0  0  0  0  0  0  0  0  0  0  0
    2.8579   -4.6655    0.0000 C   0  0  0  0  0  0  0  0  0  0  0  0
    2.8579   -3.8405    0.0000 C   0  0  0  0  0  0  0  0  0  0  0  0
    2.1434   -3.4280    0.0000 C   0  0  0  0  0  0  0  0  0  0  0  0
    0.7145   -2.6030    0.0000 O   0  0  0  0  0  0  0  0  0  0  0  0
   -2.1434   -2.6030    0.0000 C   0  0  0  0  0  0  0  0  0  0  0  0
   -2.8579   -2.1905    0.0000 C   0  0  0  0  0  0  0  0  0  0  0  0
   -2.8579   -1.3655    0.0000 C   0  0  0  0  0  0  0  0  0  0  0  0
   -3.5724   -0.9530    0.0000 C   0  0  0  0  0  0  0  0  0  0  0  0
   -2.1434   -0.9530    0.0000 C   0  0  0  0  0  0  0  0  0  0  0  0
  1  2  1  0  0  0  0
  2  3  2  0  0  0  0
  2  4  2  0  0  0  0
  2  5  1  0  0  0  0
  6  5  1  0  0  0  0
  6  7  1  0  0  0  0
  7  8  1  0  0  0  0
  9  8  2  0  0  0  0
  9 10  1  0  0  0  0
 10 11  1  0  0  0  0
 12 11  2  0  0  0  0
 12 13  1  0  0  0  0
 13 14  2  0  0  0  0
 13 15  1  0  0  0  0
 15  9  1  0  0  0  0
 16 15  2  0  0  0  0
 16 17  1  0  0  0  0
 18 16  1  0  0  0  0
 19 18  2  0  0  0  0
  8 19  1  0  0  0  0
 20 12  1  0  0  0  0
 21 20  2  0  0  0  0
 22 21  1  0  0  0  0
 23 22  2  0  0  0  0
 11 23  1  0  0  0  0
 10 24  2  0  0  0  0
 25  6  2  0  0  0  0
 26 25  1  0  0  0  0
 27 26  2  0  0  0  0
 27 28  1  0  0  0  0
 29 27  1  0  0  0  0
  5 29  2  0  0  0  0
M  END
> <RowID>
1882

> <Original_SMILES>
[Na+].CC1C=C(C(=CC=1)NC1=CC=C(O)C2=C1C(=O)C1=CC=CC=C1C2=O)S([O-])(=O)=O

> <Canonical_QSARr>
CC1C=C(C(=CC=1)NC1C=CC(O)=C2C=1C(=O)C1C=CC=CC=1C2=O)S(O)(=O)=O

> <InChI_Code_QSARr>
InChI=1S/C21H15NO6S/c1-11-6-7-14(17(10-11)29(26,27)28)22-15-8-9-16(23)19-18(15)20(24)12-4-2-3-5-13(12)21(19)25/h2-10,22-23H,1H3,(H,26,27,28)

> <InChI Key_QSARr>
XXQVCGHGQCAKKA-UHFFFAOYSA-N

> <Salt_Solvent>
[Na+]

> <Salt_Solvent_ID>
110

> <Number of connected components>
2

$$$$
Molecule_1883
  Mrv2316 01072400032D          

 15 17  0  0  0  0            999 V2000
    1.2195    2.7480    0.0000 C   0  0  0  0  0  0  0  0  0  0  0  0
    1.9339    2.3355    0.0000 C   0  0  0  0  0  0  0  0  0  0  0  0
    1.9339    1.5105    0.0000 N   0  0  0  0  0  0  0  0  0  0  0  0
    2.6014    1.0256    0.0000 C   0  0  0  0  0  0  0  0  0  0  0  0
    3.4083    1.1971    0.0000 C   0  0  0  0  0  0  0  0  0  0  0  0
    3.9604    0.5840    0.0000 C   0  0  0  0  0  0  0  0  0  0  0  0
    3.7054   -0.2006    0.0000 C   0  0  0  0  0  0  0  0  0  0  0  0
    2.8985   -0.3721    0.0000 C   0  0  0  0  0  0  0  0  0  0  0  0
    2.3464    0.2410    0.0000 C   0  0  0  0  0  0  0  0  0  0  0  0
    1.5214    0.2410    0.0000 C   0  0  0  0  0  0  0  0  0  0  0  0
    0.9694   -0.3721    0.0000 C   0  0  0  0  0  0  0  0  0  0  0  0
    0.1624   -0.2006    0.0000 C   0  0  0  0  0  0  0  0  0  0  0  0
   -0.0925    0.5840    0.0000 C   0  0  0  0  0  0  0  0  0  0  0  0
    0.4595    1.1971    0.0000 C   0  0  0  0  0  0  0  0  0  0  0  0
    1.2665    1.0256    0.0000 C   0  0  0  0  0  0  0  0  0  0  0  0
  1  2  1  0  0  0  0
  2  3  1  0  0  0  0
  4  3  1  0  0  0  0
  4  5  2  0  0  0  0
  5  6  1  0  0  0  0
  6  7  2  0  0  0  0
  7  8  1  0  0  0  0
  8  9  2  0  0  0  0
  9  4  1  0  0  0  0
 10  9  1  0  0  0  0
 10 11  1  0  0  0  0
 11 12  2  0  0  0  0
 12 13  1  0  0  0  0
 13 14  2  0  0  0  0
 14 15  1  0  0  0  0
  3 15  1  0  0  0  0
 15 10  2  0  0  0  0
M  END
> <RowID>
1883

> <Original_SMILES>
CCN1C2=CC=CC=C2C2C=CC=CC1=2

> <Canonical_QSARr>
CCN1C2=CC=CC=C2C2C=CC=CC1=2

> <InChI_Code_QSARr>
InChI=1S/C14H13N/c1-2-15-13-9-5-3-7-11(13)12-8-4-6-10-14(12)15/h3-10H,2H2,1H3

> <InChI Key_QSARr>
PLAZXGNBGZYJSA-UHFFFAOYSA-N

> <Salt_Solvent>


> <Salt_Solvent_ID>
0

> <Number of connected components>
1

$$$$
Molecule_1884
  Mrv2316 01072400032D          

 59 64  0  0  0  0            999 V2000
   -6.2122   -3.3350    0.0000 O   0  5  0  0  0  0  0  0  0  0  0  0
   -5.4978   -3.7475    0.0000 N   0  3  0  0  0  0  0  0  0  0  0  0
   -5.4978   -4.5725    0.0000 O   0  0  0  0  0  0  0  0  0  0  0  0
   -4.7833   -3.3350    0.0000 C   0  0  0  0  0  0  0  0  0  0  0  0
   -4.0688   -3.7475    0.0000 C   0  0  0  0  0  0  0  0  0  0  0  0
   -3.3543   -3.3350    0.0000 C   0  0  0  0  0  0  0  0  0  0  0  0
   -3.3543   -2.5100    0.0000 C   0  0  0  0  0  0  0  0  0  0  0  0
   -2.6399   -2.0975    0.0000 N   0  0  0  0  0  0  0  0  0  0  0  0
   -1.9254   -2.5100    0.0000 N   0  0  0  0  0  0  0  0  0  0  0  0
   -1.2109   -2.0975    0.0000 C   0  0  0  0  0  0  0  0  0  0  0  0
   -0.4965   -2.5100    0.0000 C   0  0  0  0  0  0  0  0  0  0  0  0
   -0.4965   -3.3350    0.0000 N   0  0  0  0  0  0  0  0  0  0  0  0
    0.2180   -2.0975    0.0000 C   0  0  0  0  0  0  0  0  0  0  0  0
    0.2180   -1.2725    0.0000 C   0  0  0  0  0  0  0  0  0  0  0  0
    0.9325   -0.8600    0.0000 C   0  0  0  0  0  0  0  0  0  0  0  0
    1.6470   -1.2725    0.0000 C   0  0  0  0  0  0  0  0  0  0  0  0
    1.6470   -2.0975    0.0000 C   0  0  0  0  0  0  0  0  0  0  0  0
    0.9325   -2.5100    0.0000 C   0  0  0  0  0  0  0  0  0  0  0  0
    0.9325   -3.3350    0.0000 O   0  0  0  0  0  0  0  0  0  0  0  0
    2.3614   -2.5100    0.0000 N   0  0  0  0  0  0  0  0  0  0  0  0
    2.3614   -3.3350    0.0000 N   0  0  0  0  0  0  0  0  0  0  0  0
    3.0759   -3.7475    0.0000 C   0  0  0  0  0  0  0  0  0  0  0  0
    3.0759   -4.5725    0.0000 C   0  0  0  0  0  0  0  0  0  0  0  0
    3.7904   -4.9850    0.0000 C   0  0  0  0  0  0  0  0  0  0  0  0
    4.5048   -4.5725    0.0000 C   0  0  0  0  0  0  0  0  0  0  0  0
    5.2193   -4.9850    0.0000 S   0  0  0  0  0  0  0  0  0  0  0  0
    5.9338   -5.3975    0.0000 N   0  0  0  0  0  0  0  0  0  0  0  0
    6.6482   -4.9850    0.0000 C   0  0  0  0  0  0  0  0  0  0  0  0
    7.3627   -5.3975    0.0000 C   0  0  0  0  0  0  0  0  0  0  0  0
    8.0772   -4.9850    0.0000 C   0  0  0  0  0  0  0  0  0  0  0  0
    8.0772   -4.1600    0.0000 C   0  0  0  0  0  0  0  0  0  0  0  0
    8.7917   -3.7475    0.0000 N   0  0  0  0  0  0  0  0  0  0  0  0
    9.5061   -4.1600    0.0000 N   0  0  0  0  0  0  0  0  0  0  0  0
   10.2206   -3.7475    0.0000 C   0  0  0  0  0  0  0  0  0  0  0  0
   10.9351   -4.1600    0.0000 C   0  0  0  0  0  0  0  0  0  0  0  0
   10.9351   -4.9850    0.0000 N   0  0  0  0  0  0  0  0  0  0  0  0
   11.6495   -3.7475    0.0000 C   0  0  0  0  0  0  0  0  0  0  0  0
   11.6495   -2.9225    0.0000 C   0  0  0  0  0  0  0  0  0  0  0  0
   12.3640   -2.5100    0.0000 N   0  0  0  0  0  0  0  0  0  0  0  0
   10.9351   -2.5100    0.0000 C   0  0  0  0  0  0  0  0  0  0  0  0
   10.2206   -2.9225    0.0000 C   0  0  0  0  0  0  0  0  0  0  0  0
    7.3627   -3.7475    0.0000 C   0  0  0  0  0  0  0  0  0  0  0  0
    6.6482   -4.1600    0.0000 C   0  0  0  0  0  0  0  0  0  0  0  0
    4.8068   -5.6994    0.0000 O   0  0  0  0  0  0  0  0  0  0  0  0
    5.6318   -4.2705    0.0000 O   0  0  0  0  0  0  0  0  0  0  0  0
    4.5048   -3.7475    0.0000 C   0  0  0  0  0  0  0  0  0  0  0  0
    3.7904   -3.3350    0.0000 C   0  0  0  0  0  0  0  0  0  0  0  0
    2.3614   -0.8600    0.0000 S   0  0  0  0  0  0  0  0  0  0  0  0
    3.0759   -0.4475    0.0000 O   0  0  0  0  0  0  0  0  0  0  0  0
    2.7739   -1.5744    0.0000 O   0  0  0  0  0  0  0  0  0  0  0  0
    1.9489   -0.1455    0.0000 O   0  0  0  0  0  0  0  0  0  0  0  0
   -0.4965   -0.8600    0.0000 C   0  0  0  0  0  0  0  0  0  0  0  0
   -1.2109   -1.2725    0.0000 C   0  0  0  0  0  0  0  0  0  0  0  0
   -1.9254   -0.8600    0.0000 S   0  0  0  0  0  0  0  0  0  0  0  0
   -2.6399   -0.4475    0.0000 O   0  0  0  0  0  0  0  0  0  0  0  0
   -2.3379   -1.5744    0.0000 O   0  0  0  0  0  0  0  0  0  0  0  0
   -1.5129   -0.1455    0.0000 O   0  0  0  0  0  0  0  0  0  0  0  0
   -4.0688   -2.0975    0.0000 C   0  0  0  0  0  0  0  0  0  0  0  0
   -4.7833   -2.5100    0.0000 C   0  0  0  0  0  0  0  0  0  0  0  0
  1  2  1  0  0  0  0
  2  3  2  0  0  0  0
  2  4  1  0  0  0  0
  5  4  2  0  0  0  0
  6  5  1  0  0  0  0
  7  6  2  0  0  0  0
  8  7  1  4  0  0  0
  8  9  2  0  0  0  0
  9 10  1  0  0  0  0
 11 10  2  0  0  0  0
 11 12  1  0  0  0  0
 13 11  1  0  0  0  0
 13 14  2  0  0  0  0
 14 15  1  0  0  0  0
 15 16  2  0  0  0  0
 16 17  1  0  0  0  0
 17 18  2  0  0  0  0
 18 13  1  0  0  0  0
 18 19  1  0  0  0  0
 20 17  1  4  0  0  0
 20 21  2  0  0  0  0
 21 22  1  0  0  0  0
 23 22  2  0  0  0  0
 24 23  1  0  0  0  0
 25 24  2  0  0  0  0
 25 26  1  0  0  0  0
 26 27  1  0  0  0  0
 27 28  1  0  0  0  0
 29 28  2  0  0  0  0
 30 29  1  0  0  0  0
 31 30  2  0  0  0  0
 32 31  1  4  0  0  0
 32 33  2  0  0  0  0
 33 34  1  0  0  0  0
 35 34  2  0  0  0  0
 35 36  1  0  0  0  0
 37 35  1  0  0  0  0
 38 37  2  0  0  0  0
 38 39  1  0  0  0  0
 40 38  1  0  0  0  0
 41 40  2  0  0  0  0
 34 41  1  0  0  0  0
 42 31  1  0  0  0  0
 43 42  2  0  0  0  0
 28 43  1  0  0  0  0
 26 44  2  0  0  0  0
 26 45  2  0  0  0  0
 46 25  1  0  0  0  0
 47 46  2  0  0  0  0
 22 47  1  0  0  0  0
 16 48  1  0  0  0  0
 48 49  1  0  0  0  0
 48 50  2  0  0  0  0
 48 51  2  0  0  0  0
 52 14  1  0  0  0  0
 53 52  2  0  0  0  0
 10 53  1  0  0  0  0
 53 54  1  0  0  0  0
 54 55  1  0  0  0  0
 54 56  2  0  0  0  0
 54 57  2  0  0  0  0
 58  7  1  0  0  0  0
 59 58  2  0  0  0  0
  4 59  1  0  0  0  0
M  CHG  2   1  -1   2   1
M  END
> <RowID>
1884

> <Original_SMILES>
[Na+].[Na+].NC1C2C(O)=C(N=NC3C=CC(=CC=3)S(=O)(=O)NC3C=CC(=CC=3)N=NC3=CC=C(N)C=C3N)C(=CC=2C=C(C=1N=NC1C=CC(=CC=1)[N+]([O-])=O)S([O-])(=O)=O)S([O-])(=O)=O

> <Canonical_QSARr>
NC1=CC(N)=C(C=C1)N=NC1C=CC(=CC=1)NS(=O)(=O)C1C=CC(=CC=1)N=NC1C(=CC2C=C(C(N=NC3C=CC(=CC=3)[N+]([O-])=O)=C(N)C=2C=1O)S(O)(=O)=O)S(O)(=O)=O

> <InChI_Code_QSARr>
InChI=1S/C34H27N11O11S3/c35-19-1-14-27(26(36)17-19)41-38-20-2-4-23(5-3-20)44-57(49,50)25-12-8-22(9-13-25)40-43-33-29(59(54,55)56)16-18-15-28(58(51,52)53)32(31(37)30(18)34(33)46)42-39-21-6-10-24(11-7-21)45(47)48/h1-17,44,46H,35-37H2,(H,51,52,53)(H,54,55,56)

> <InChI Key_QSARr>
KLOBVOJCYFKUOI-UHFFFAOYSA-N

> <Salt_Solvent>
[Na+]

> <Salt_Solvent_ID>
110

> <Number of connected components>
3

$$$$
Molecule_1885
  Mrv2316 01072400032D          

  4  3  0  0  0  0            999 V2000
    1.2375    0.7145    0.0000 O   0  0  0  0  0  0  0  0  0  0  0  0
    0.8250   -0.0000    0.0000 C   0  0  0  0  0  0  0  0  0  0  0  0
    1.2375   -0.7145    0.0000 O   0  0  0  0  0  0  0  0  0  0  0  0
    0.0000   -0.0000    0.0000 C   0  0  0  0  0  0  0  0  0  0  0  0
  1  2  1  0  0  0  0
  2  3  2  0  0  0  0
  2  4  1  0  0  0  0
M  END
> <RowID>
1885

> <Original_SMILES>
[Mn+2].CC([O-])=O.CC([O-])=O

> <Canonical_QSARr>
CC(O)=O

> <InChI_Code_QSARr>
InChI=1S/C2H4O2/c1-2(3)4/h1H3,(H,3,4)

> <InChI Key_QSARr>
QTBSBXVTEAMEQO-UHFFFAOYSA-N

> <Salt_Solvent>
[Mn+2]

> <Salt_Solvent_ID>
250

> <Number of connected components>
3

$$$$
Molecule_1886
  Mrv2316 01072400032D          

  5  4  0  0  0  0            999 V2000
    2.0625   -0.7145    0.0000 C   0  0  0  0  0  0  0  0  0  0  0  0
    1.2375   -0.7145    0.0000 C   0  0  0  0  0  0  0  0  0  0  0  0
    0.8250   -1.4289    0.0000 C   0  0  0  0  0  0  0  0  0  0  0  0
    0.8250   -0.0000    0.0000 N   0  0  0  0  0  0  0  0  0  0  0  0
    0.0000   -0.0000    0.0000 O   0  0  0  0  0  0  0  0  0  0  0  0
  1  2  1  0  0  0  0
  2  3  1  0  0  0  0
  2  4  1  0  0  0  0
  4  5  1  0  0  0  0
M  END
> <RowID>
1886

> <Original_SMILES>
CC(C)NO

> <Canonical_QSARr>
CC(C)NO

> <InChI_Code_QSARr>
InChI=1S/C3H9NO/c1-3(2)4-5/h3-5H,1-2H3

> <InChI Key_QSARr>
ODHYIQOBTIWVRZ-UHFFFAOYSA-N

> <Salt_Solvent>


> <Salt_Solvent_ID>
0

> <Number of connected components>
1

$$$$
Molecule_1887
  Mrv2316 01072400032D          

 10 10  0  0  0  0            999 V2000
   -0.0000   -0.8250    0.0000 O   0  5  0  0  0  0  0  0  0  0  0  0
    0.7145   -0.4125    0.0000 N   0  3  0  0  0  0  0  0  0  0  0  0
    1.4289   -0.8250    0.0000 O   0  0  0  0  0  0  0  0  0  0  0  0
    0.7145    0.4125    0.0000 C   0  0  0  0  0  0  0  0  0  0  0  0
    1.4289    0.8250    0.0000 C   0  0  0  0  0  0  0  0  0  0  0  0
    1.4289    1.6500    0.0000 C   0  0  0  0  0  0  0  0  0  0  0  0
    0.7145    2.0625    0.0000 C   0  0  0  0  0  0  0  0  0  0  0  0
    0.7145    2.8875    0.0000 Cl  0  0  0  0  0  0  0  0  0  0  0  0
   -0.0000    1.6500    0.0000 C   0  0  0  0  0  0  0  0  0  0  0  0
   -0.0000    0.8250    0.0000 C   0  0  0  0  0  0  0  0  0  0  0  0
  1  2  1  0  0  0  0
  2  3  2  0  0  0  0
  2  4  1  0  0  0  0
  5  4  1  0  0  0  0
  6  5  2  0  0  0  0
  7  6  1  0  0  0  0
  7  8  1  0  0  0  0
  9  7  2  0  0  0  0
 10  9  1  0  0  0  0
  4 10  2  0  0  0  0
M  CHG  2   1  -1   2   1
M  END
> <RowID>
1887

> <Original_SMILES>
[O-][N+](=O)C1C=CC(Cl)=CC=1

> <Canonical_QSARr>
[O-][N+](=O)C1C=CC(Cl)=CC=1

> <InChI_Code_QSARr>
InChI=1S/C6H4ClNO2/c7-5-1-3-6(4-2-5)8(9)10/h1-4H

> <InChI Key_QSARr>
CZGCEKJOLUNIFY-UHFFFAOYSA-N

> <Salt_Solvent>


> <Salt_Solvent_ID>
0

> <Number of connected components>
1

$$$$
Molecule_1888
  Mrv2316 01072400032D          

 12 12  0  0  0  0            999 V2000
    1.5480    2.0625    0.0000 C   0  0  0  0  0  0  0  0  0  0  0  0
    0.8335    2.4750    0.0000 C   0  0  0  0  0  0  0  0  0  0  0  0
    0.8335    3.3000    0.0000 N   0  0  0  0  0  0  0  0  0  0  0  0
    1.5480    3.7125    0.0000 C   0  0  0  0  0  0  0  0  0  0  0  0
    0.1191    2.0625    0.0000 C   0  0  0  0  0  0  0  0  0  0  0  0
   -0.5954    2.4750    0.0000 O   0  0  0  0  0  0  0  0  0  0  0  0
    0.1191    1.2375    0.0000 C   0  0  0  0  0  0  0  0  0  0  0  0
   -0.5954    0.8250    0.0000 C   0  0  0  0  0  0  0  0  0  0  0  0
   -0.5954   -0.0000    0.0000 C   0  0  0  0  0  0  0  0  0  0  0  0
    0.1191   -0.4125    0.0000 C   0  0  0  0  0  0  0  0  0  0  0  0
    0.8335    0.0000    0.0000 C   0  0  0  0  0  0  0  0  0  0  0  0
    0.8335    0.8250    0.0000 C   0  0  0  0  0  0  0  0  0  0  0  0
  1  2  1  0  0  0  0
  2  3  1  0  0  0  0
  3  4  1  0  0  0  0
  2  5  1  0  0  0  0
  5  6  1  0  0  0  0
  5  7  1  0  0  0  0
  8  7  1  0  0  0  0
  9  8  2  0  0  0  0
 10  9  1  0  0  0  0
 11 10  2  0  0  0  0
 12 11  1  0  0  0  0
  7 12  2  0  0  0  0
M  END
> <RowID>
1888

> <Original_SMILES>
CC(NC)C(O)C1C=CC=CC=1

> <Canonical_QSARr>
CC(NC)C(O)C1C=CC=CC=1

> <InChI_Code_QSARr>
InChI=1S/C10H15NO/c1-8(11-2)10(12)9-6-4-3-5-7-9/h3-8,10-12H,1-2H3

> <InChI Key_QSARr>
KWGRBVOPPLSCSI-UHFFFAOYSA-N

> <Salt_Solvent>


> <Salt_Solvent_ID>
0

> <Number of connected components>
1

$$$$
Molecule_1889
  Mrv2316 01072400032D          

 21 22  0  0  0  0            999 V2000
    5.2395    0.0000    0.0000 C   0  0  0  0  0  0  0  0  0  0  0  0
    4.5250   -0.4125    0.0000 C   0  0  0  0  0  0  0  0  0  0  0  0
    3.8105    0.0000    0.0000 O   0  0  0  0  0  0  0  0  0  0  0  0
    3.0960   -0.4125    0.0000 C   0  0  0  0  0  0  0  0  0  0  0  0
    3.0960   -1.2375    0.0000 O   0  0  0  0  0  0  0  0  0  0  0  0
    2.3816   -0.0000    0.0000 C   0  0  0  0  0  0  0  0  0  0  0  0
    2.3816    0.8250    0.0000 C   0  0  0  0  0  0  0  0  0  0  0  0
    2.3816    1.6500    0.0000 N   0  0  0  0  0  0  0  0  0  0  0  0
    1.6671   -0.4125    0.0000 C   0  0  0  0  0  0  0  0  0  0  0  0
    1.6671   -1.2375    0.0000 C   0  0  0  0  0  0  0  0  0  0  0  0
    0.9526   -1.6500    0.0000 C   0  0  0  0  0  0  0  0  0  0  0  0
    0.9526   -2.4750    0.0000 C   0  0  0  0  0  0  0  0  0  0  0  0
    1.6671   -2.8875    0.0000 C   0  0  0  0  0  0  0  0  0  0  0  0
    2.3816   -2.4750    0.0000 C   0  0  0  0  0  0  0  0  0  0  0  0
    2.3816   -1.6500    0.0000 C   0  0  0  0  0  0  0  0  0  0  0  0
    0.9526   -0.0000    0.0000 C   0  0  0  0  0  0  0  0  0  0  0  0
    0.9526    0.8250    0.0000 C   0  0  0  0  0  0  0  0  0  0  0  0
    0.2382    1.2375    0.0000 C   0  0  0  0  0  0  0  0  0  0  0  0
   -0.4763    0.8250    0.0000 C   0  0  0  0  0  0  0  0  0  0  0  0
   -0.4763    0.0000    0.0000 C   0  0  0  0  0  0  0  0  0  0  0  0
    0.2382   -0.4125    0.0000 C   0  0  0  0  0  0  0  0  0  0  0  0
  1  2  1  0  0  0  0
  2  3  1  0  0  0  0
  3  4  1  0  0  0  0
  4  5  2  0  0  0  0
  4  6  1  0  0  0  0
  6  7  1  0  0  0  0
  7  8  3  0  0  0  0
  6  9  2  0  0  0  0
  9 10  1  0  0  0  0
 11 10  1  0  0  0  0
 12 11  2  0  0  0  0
 13 12  1  0  0  0  0
 14 13  2  0  0  0  0
 15 14  1  0  0  0  0
 10 15  2  0  0  0  0
  9 16  1  0  0  0  0
 17 16  1  0  0  0  0
 18 17  2  0  0  0  0
 19 18  1  0  0  0  0
 20 19  2  0  0  0  0
 21 20  1  0  0  0  0
 16 21  2  0  0  0  0
M  END
> <RowID>
1889

> <Original_SMILES>
CCOC(=O)C(C#N)=C(C1C=CC=CC=1)C1C=CC=CC=1

> <Canonical_QSARr>
CCOC(=O)C(C#N)=C(C1C=CC=CC=1)C1C=CC=CC=1

> <InChI_Code_QSARr>
InChI=1S/C18H15NO2/c1-2-21-18(20)16(13-19)17(14-9-5-3-6-10-14)15-11-7-4-8-12-15/h3-12H,2H2,1H3

> <InChI Key_QSARr>
IAJNXBNRYMEYAZ-UHFFFAOYSA-N

> <Salt_Solvent>


> <Salt_Solvent_ID>
0

> <Number of connected components>
1

$$$$
Molecule_1890
  Mrv2316 01072400032D          

 23 26  0  0  0  0            999 V2000
    1.1270    1.1270    0.0000 C   0  0  0  0  0  0  0  0  0  0  0  0
    0.3020    1.1270    0.0000 O   0  0  0  0  0  0  0  0  0  0  0  0
   -0.1105    0.4125    0.0000 C   0  0  0  0  0  0  0  0  0  0  0  0
   -0.9355    0.4125    0.0000 C   0  0  0  0  0  0  0  0  0  0  0  0
   -1.3480    1.1270    0.0000 C   0  0  0  0  0  0  0  0  0  0  0  0
   -2.1730    1.1270    0.0000 C   0  0  0  0  0  0  0  0  0  0  0  0
   -2.5855    0.4125    0.0000 C   0  0  0  0  0  0  0  0  0  0  0  0
   -2.1730   -0.3020    0.0000 C   0  0  0  0  0  0  0  0  0  0  0  0
   -1.3480   -0.3020    0.0000 C   0  0  0  0  0  0  0  0  0  0  0  0
    0.3020   -0.3020    0.0000 O   0  0  0  0  0  0  0  0  0  0  0  0
    1.1270   -0.3020    0.0000 C   0  0  0  0  0  0  0  0  0  0  0  0
    1.5395    0.4125    0.0000 C   0  0  0  0  0  0  0  0  0  0  0  0
    1.9520   -0.3020    0.0000 C   0  0  0  0  0  0  0  0  0  0  0  0
    2.7770   -0.3020    0.0000 O   0  0  0  0  0  0  0  0  0  0  0  0
    3.1895    0.4125    0.0000 C   0  0  0  0  0  0  0  0  0  0  0  0
    4.0145    0.4125    0.0000 C   0  0  0  0  0  0  0  0  0  0  0  0
    4.4270   -0.3020    0.0000 C   0  0  0  0  0  0  0  0  0  0  0  0
    5.2520   -0.3020    0.0000 C   0  0  0  0  0  0  0  0  0  0  0  0
    5.6645    0.4125    0.0000 C   0  0  0  0  0  0  0  0  0  0  0  0
    5.2520    1.1270    0.0000 C   0  0  0  0  0  0  0  0  0  0  0  0
    4.4270    1.1270    0.0000 C   0  0  0  0  0  0  0  0  0  0  0  0
    2.7770    1.1270    0.0000 O   0  0  0  0  0  0  0  0  0  0  0  0
    1.9520    1.1270    0.0000 C   0  0  0  0  0  0  0  0  0  0  0  0
  2  1  1  0  0  0  0
  3  2  1  0  0  0  0
  3  4  1  0  0  0  0
  5  4  1  0  0  0  0
  6  5  1  0  0  0  0
  7  6  2  0  0  0  0
  8  7  1  0  0  0  0
  9  8  1  0  0  0  0
  4  9  1  0  0  0  0
 10  3  1  0  0  0  0
 11 10  1  0  0  0  0
 12 11  1  0  0  0  0
  1 12  1  0  0  0  0
 13 12  1  0  0  0  0
 14 13  1  0  0  0  0
 15 14  1  0  0  0  0
 15 16  1  0  0  0  0
 17 16  1  0  0  0  0
 18 17  1  0  0  0  0
 19 18  2  0  0  0  0
 20 19  1  0  0  0  0
 21 20  1  0  0  0  0
 16 21  1  0  0  0  0
 22 15  1  0  0  0  0
 23 22  1  0  0  0  0
 12 23  1  0  0  0  0
M  END
> <RowID>
1890

> <Original_SMILES>
C1OC(OCC21COC(OC2)C1CC=CCC1)C1CC=CCC1

> <Canonical_QSARr>
C1OC(OCC21COC(OC2)C1CC=CCC1)C1CC=CCC1

> <InChI_Code_QSARr>
InChI=1S/C19H28O4/c1-3-7-15(8-4-1)17-20-11-19(12-21-17)13-22-18(23-14-19)16-9-5-2-6-10-16/h1-3,5,15-18H,4,6-14H2

> <InChI Key_QSARr>
WKTJXDHLMJKSGI-UHFFFAOYSA-N

> <Salt_Solvent>


> <Salt_Solvent_ID>
0

> <Number of connected components>
1

$$$$
Molecule_1891
  Mrv2316 01072400032D          

 26 28  0  0  0  0            999 V2000
   -1.7587   -3.5538    0.0000 C   0  0  0  0  0  0  0  0  0  0  0  0
   -1.0442   -3.1413    0.0000 C   0  0  0  0  0  0  0  0  0  0  0  0
   -1.0442   -2.3163    0.0000 C   0  0  0  0  0  0  0  0  0  0  0  0
   -0.3297   -1.9038    0.0000 C   0  0  0  0  0  0  0  0  0  0  0  0
   -0.3297   -1.0788    0.0000 N   0  0  0  0  0  0  0  0  0  0  0  0
    0.3847   -0.6663    0.0000 C   0  0  0  0  0  0  0  0  0  0  0  0
    0.3847    0.1587    0.0000 C   0  0  0  0  0  0  0  0  0  0  0  0
    1.0992    0.5712    0.0000 C   0  0  0  0  0  0  0  0  0  0  0  0
    1.8137    0.1587    0.0000 C   0  0  0  0  0  0  0  0  0  0  0  0
    2.5281    0.5712    0.0000 N   0  0  0  0  0  0  0  0  0  0  0  0
    3.2426    0.1587    0.0000 C   0  0  0  0  0  0  0  0  0  0  0  0
    3.9571    0.5712    0.0000 C   0  0  0  0  0  0  0  0  0  0  0  0
    4.6716    0.1587    0.0000 C   0  0  0  0  0  0  0  0  0  0  0  0
    5.3860    0.5712    0.0000 C   0  0  0  0  0  0  0  0  0  0  0  0
    1.8137   -0.6663    0.0000 C   0  0  0  0  0  0  0  0  0  0  0  0
    1.0992   -1.0788    0.0000 C   0  0  0  0  0  0  0  0  0  0  0  0
    1.0992   -1.9038    0.0000 C   0  0  0  0  0  0  0  0  0  0  0  0
    0.3847   -2.3163    0.0000 O   0  0  0  0  0  0  0  0  0  0  0  0
    1.8137   -2.3163    0.0000 C   0  0  0  0  0  0  0  0  0  0  0  0
    1.8137   -3.1413    0.0000 C   0  0  0  0  0  0  0  0  0  0  0  0
    2.5281   -3.5538    0.0000 C   0  0  0  0  0  0  0  0  0  0  0  0
    3.2426   -3.1413    0.0000 C   0  0  0  0  0  0  0  0  0  0  0  0
    3.2426   -2.3163    0.0000 C   0  0  0  0  0  0  0  0  0  0  0  0
    2.5281   -1.9038    0.0000 C   0  0  0  0  0  0  0  0  0  0  0  0
    2.5281   -1.0788    0.0000 C   0  0  0  0  0  0  0  0  0  0  0  0
    3.2426   -0.6663    0.0000 O   0  0  0  0  0  0  0  0  0  0  0  0
  1  2  1  0  0  0  0
  2  3  1  0  0  0  0
  3  4  1  0  0  0  0
  4  5  1  0  0  0  0
  5  6  1  0  0  0  0
  7  6  2  0  0  0  0
  8  7  1  0  0  0  0
  9  8  2  0  0  0  0
  9 10  1  0  0  0  0
 10 11  1  0  0  0  0
 11 12  1  0  0  0  0
 12 13  1  0  0  0  0
 13 14  1  0  0  0  0
 15  9  1  0  0  0  0
 15 16  2  0  0  0  0
  6 16  1  0  0  0  0
 16 17  1  0  0  0  0
 17 18  2  0  0  0  0
 17 19  1  0  0  0  0
 20 19  1  0  0  0  0
 21 20  2  0  0  0  0
 22 21  1  0  0  0  0
 23 22  2  0  0  0  0
 24 23  1  0  0  0  0
 19 24  2  0  0  0  0
 24 25  1  0  0  0  0
 25 15  1  0  0  0  0
 25 26  2  0  0  0  0
M  END
> <RowID>
1891

> <Original_SMILES>
CCCCNC1=CC=C(NCCCC)C2=C1C(=O)C1C=CC=CC=1C2=O

> <Canonical_QSARr>
CCCCNC1=CC=C(NCCCC)C2=C1C(=O)C1C=CC=CC=1C2=O

> <InChI_Code_QSARr>
InChI=1S/C22H26N2O2/c1-3-5-13-23-17-11-12-18(24-14-6-4-2)20-19(17)21(25)15-9-7-8-10-16(15)22(20)26/h7-12,23-24H,3-6,13-14H2,1-2H3

> <InChI Key_QSARr>
OCQDPIXQTSYZJL-UHFFFAOYSA-N

> <Salt_Solvent>


> <Salt_Solvent_ID>
0

> <Number of connected components>
1

$$$$
Molecule_1892
  Mrv2316 01072400032D          

 49 50  0  0  0  0            999 V2000
  -15.1205   -0.2105    0.0000 C   0  0  0  0  0  0  0  0  0  0  0  0
  -14.4061    0.2020    0.0000 C   0  0  0  0  0  0  0  0  0  0  0  0
  -13.6916   -0.2105    0.0000 C   0  0  0  0  0  0  0  0  0  0  0  0
  -12.9771    0.2020    0.0000 C   0  0  0  0  0  0  0  0  0  0  0  0
  -12.2627   -0.2105    0.0000 C   0  0  0  0  0  0  0  0  0  0  0  0
  -11.5482    0.2020    0.0000 C   0  0  0  0  0  0  0  0  0  0  0  0
  -10.8337   -0.2105    0.0000 C   0  0  0  0  0  0  0  0  0  0  0  0
  -10.1192    0.2020    0.0000 C   0  0  0  0  0  0  0  0  0  0  0  0
   -9.4048   -0.2105    0.0000 C   0  0  0  0  0  0  0  0  0  0  0  0
   -8.6903    0.2020    0.0000 C   0  0  0  0  0  0  0  0  0  0  0  0
   -7.9758   -0.2105    0.0000 C   0  0  0  0  0  0  0  0  0  0  0  0
   -7.2614    0.2020    0.0000 C   0  0  0  0  0  0  0  0  0  0  0  0
   -6.5469   -0.2105    0.0000 C   0  0  0  0  0  0  0  0  0  0  0  0
   -5.8324    0.2020    0.0000 C   0  0  0  0  0  0  0  0  0  0  0  0
   -5.1179   -0.2105    0.0000 C   0  0  0  0  0  0  0  0  0  0  0  0
   -4.4035    0.2020    0.0000 C   0  0  0  0  0  0  0  0  0  0  0  0
   -3.6890   -0.2105    0.0000 C   0  0  0  0  0  0  0  0  0  0  0  0
   -2.9745    0.2020    0.0000 C   0  0  0  0  0  0  0  0  0  0  0  0
   -2.2601   -0.2105    0.0000 O   0  0  0  0  0  0  0  0  0  0  0  0
   -1.5456    0.2020    0.0000 P   0  0  0  0  0  0  0  0  0  0  0  0
   -0.8311   -0.2105    0.0000 O   0  0  0  0  0  0  0  0  0  0  0  0
   -0.1166    0.2020    0.0000 C   0  0  0  0  0  0  0  0  0  0  0  0
   -0.1166    1.0270    0.0000 C   0  0  0  0  0  0  0  0  0  0  0  0
    0.5978    0.6145    0.0000 C   0  0  0  0  0  0  0  0  0  0  0  0
    1.3123    1.0270    0.0000 O   0  0  0  0  0  0  0  0  0  0  0  0
    1.3123    1.8520    0.0000 P   0  0  0  0  0  0  0  0  0  0  0  0
    2.0268    2.2645    0.0000 O   0  0  0  0  0  0  0  0  0  0  0  0
    2.7412    1.8520    0.0000 C   0  0  0  0  0  0  0  0  0  0  0  0
    3.4557    2.2645    0.0000 C   0  0  0  0  0  0  0  0  0  0  0  0
    4.1702    1.8520    0.0000 C   0  0  0  0  0  0  0  0  0  0  0  0
    4.8846    2.2645    0.0000 C   0  0  0  0  0  0  0  0  0  0  0  0
    5.5991    1.8520    0.0000 C   0  0  0  0  0  0  0  0  0  0  0  0
    6.3136    2.2645    0.0000 C   0  0  0  0  0  0  0  0  0  0  0  0
    7.0281    1.8520    0.0000 C   0  0  0  0  0  0  0  0  0  0  0  0
    7.7425    2.2645    0.0000 C   0  0  0  0  0  0  0  0  0  0  0  0
    8.4570    1.8520    0.0000 C   0  0  0  0  0  0  0  0  0  0  0  0
    9.1715    2.2645    0.0000 C   0  0  0  0  0  0  0  0  0  0  0  0
    9.8859    1.8520    0.0000 C   0  0  0  0  0  0  0  0  0  0  0  0
   10.6004    2.2645    0.0000 C   0  0  0  0  0  0  0  0  0  0  0  0
   11.3149    1.8520    0.0000 C   0  0  0  0  0  0  0  0  0  0  0  0
   12.0294    2.2645    0.0000 C   0  0  0  0  0  0  0  0  0  0  0  0
   12.7438    1.8520    0.0000 C   0  0  0  0  0  0  0  0  0  0  0  0
   13.4583    2.2645    0.0000 C   0  0  0  0  0  0  0  0  0  0  0  0
   14.1728    1.8520    0.0000 C   0  0  0  0  0  0  0  0  0  0  0  0
   14.8872    2.2645    0.0000 C   0  0  0  0  0  0  0  0  0  0  0  0
    0.5978    2.2645    0.0000 O   0  0  0  0  0  0  0  0  0  0  0  0
   -0.1166    1.8520    0.0000 C   0  0  0  0  0  0  0  0  0  0  0  0
   -0.8311    1.4395    0.0000 C   0  0  0  0  0  0  0  0  0  0  0  0
   -1.5456    1.0270    0.0000 O   0  0  0  0  0  0  0  0  0  0  0  0
  1  2  1  0  0  0  0
  2  3  1  0  0  0  0
  3  4  1  0  0  0  0
  4  5  1  0  0  0  0
  5  6  1  0  0  0  0
  6  7  1  0  0  0  0
  7  8  1  0  0  0  0
  8  9  1  0  0  0  0
  9 10  1  0  0  0  0
 10 11  1  0  0  0  0
 11 12  1  0  0  0  0
 12 13  1  0  0  0  0
 13 14  1  0  0  0  0
 14 15  1  0  0  0  0
 15 16  1  0  0  0  0
 16 17  1  0  0  0  0
 17 18  1  0  0  0  0
 18 19  1  0  0  0  0
 19 20  1  0  0  0  0
 21 20  1  0  0  0  0
 22 21  1  0  0  0  0
 23 22  1  0  0  0  0
 24 23  1  0  0  0  0
 25 24  1  0  0  0  0
 26 25  1  0  0  0  0
 26 27  1  0  0  0  0
 27 28  1  0  0  0  0
 28 29  1  0  0  0  0
 29 30  1  0  0  0  0
 30 31  1  0  0  0  0
 31 32  1  0  0  0  0
 32 33  1  0  0  0  0
 33 34  1  0  0  0  0
 34 35  1  0  0  0  0
 35 36  1  0  0  0  0
 36 37  1  0  0  0  0
 37 38  1  0  0  0  0
 38 39  1  0  0  0  0
 39 40  1  0  0  0  0
 40 41  1  0  0  0  0
 41 42  1  0  0  0  0
 42 43  1  0  0  0  0
 43 44  1  0  0  0  0
 44 45  1  0  0  0  0
 46 26  1  0  0  0  0
 47 46  1  0  0  0  0
 23 47  1  0  0  0  0
 48 23  1  0  0  0  0
 49 48  1  0  0  0  0
 20 49  1  0  0  0  0
M  END
> <RowID>
1892

> <Original_SMILES>
CCCCCCCCCCCCCCCCCCOP1OCC2(COP(OC2)OCCCCCCCCCCCCCCCCCC)CO1

> <Canonical_QSARr>
CCCCCCCCCCCCCCCCCCOP1OCC2(COP(OC2)OCCCCCCCCCCCCCCCCCC)CO1

> <InChI_Code_QSARr>
InChI=1S/C41H82O6P2/c1-3-5-7-9-11-13-15-17-19-21-23-25-27-29-31-33-35-42-48-44-37-41(38-45-48)39-46-49(47-40-41)43-36-34-32-30-28-26-24-22-20-18-16-14-12-10-8-6-4-2/h3-40H2,1-2H3

> <InChI Key_QSARr>
PZRWFKGUFWPFID-UHFFFAOYSA-N

> <Salt_Solvent>


> <Salt_Solvent_ID>
0

> <Number of connected components>
1

$$$$
Molecule_1894
  Mrv2316 01072400032D          

 25 24  0  0  0  0            999 V2000
    1.1566    1.8414    0.0000 C   0  0  0  0  0  0  0  0  0  0  0  0
    1.5691    2.5559    0.0000 C   0  0  0  0  0  0  0  0  0  0  0  0
    1.9816    3.2704    0.0000 C   0  0  0  0  0  0  0  0  0  0  0  0
    0.8546    2.9684    0.0000 C   0  0  0  0  0  0  0  0  0  0  0  0
    0.1402    2.5559    0.0000 O   0  0  0  0  0  0  0  0  0  0  0  0
   -0.5743    2.9684    0.0000 C   0  0  0  0  0  0  0  0  0  0  0  0
   -0.5743    3.7934    0.0000 O   0  0  0  0  0  0  0  0  0  0  0  0
   -1.2888    2.5559    0.0000 C   0  0  0  0  0  0  0  0  0  0  0  0
   -2.0033    2.9684    0.0000 C   0  0  0  0  0  0  0  0  0  0  0  0
   -2.7177    2.5559    0.0000 C   0  0  0  0  0  0  0  0  0  0  0  0
   -3.4322    2.9684    0.0000 C   0  0  0  0  0  0  0  0  0  0  0  0
   -4.1467    2.5559    0.0000 C   0  0  0  0  0  0  0  0  0  0  0  0
   -4.8611    2.9684    0.0000 C   0  0  0  0  0  0  0  0  0  0  0  0
   -5.5756    2.5559    0.0000 C   0  0  0  0  0  0  0  0  0  0  0  0
    2.2836    2.1434    0.0000 C   0  0  0  0  0  0  0  0  0  0  0  0
    2.9980    2.5559    0.0000 O   0  0  0  0  0  0  0  0  0  0  0  0
    3.7125    2.1434    0.0000 C   0  0  0  0  0  0  0  0  0  0  0  0
    3.7125    1.3184    0.0000 O   0  0  0  0  0  0  0  0  0  0  0  0
    4.4270    2.5559    0.0000 C   0  0  0  0  0  0  0  0  0  0  0  0
    5.1415    2.1434    0.0000 C   0  0  0  0  0  0  0  0  0  0  0  0
    5.8559    2.5559    0.0000 C   0  0  0  0  0  0  0  0  0  0  0  0
    6.5704    2.1434    0.0000 C   0  0  0  0  0  0  0  0  0  0  0  0
    7.2849    2.5559    0.0000 C   0  0  0  0  0  0  0  0  0  0  0  0
    7.9993    2.1434    0.0000 C   0  0  0  0  0  0  0  0  0  0  0  0
    8.7138    2.5559    0.0000 C   0  0  0  0  0  0  0  0  0  0  0  0
  1  2  1  0  0  0  0
  2  3  1  0  0  0  0
  2  4  1  0  0  0  0
  4  5  1  0  0  0  0
  5  6  1  0  0  0  0
  6  7  2  0  0  0  0
  6  8  1  0  0  0  0
  8  9  1  0  0  0  0
  9 10  1  0  0  0  0
 10 11  1  0  0  0  0
 11 12  1  0  0  0  0
 12 13  1  0  0  0  0
 13 14  1  0  0  0  0
  2 15  1  0  0  0  0
 15 16  1  0  0  0  0
 16 17  1  0  0  0  0
 17 18  2  0  0  0  0
 17 19  1  0  0  0  0
 19 20  1  0  0  0  0
 20 21  1  0  0  0  0
 21 22  1  0  0  0  0
 22 23  1  0  0  0  0
 23 24  1  0  0  0  0
 24 25  1  0  0  0  0
M  END
> <RowID>
1894

> <Original_SMILES>
CC(C)(COC(=O)CCCCCCC)COC(=O)CCCCCCC

> <Canonical_QSARr>
CC(C)(COC(=O)CCCCCCC)COC(=O)CCCCCCC

> <InChI_Code_QSARr>
InChI=1S/C21H40O4/c1-5-7-9-11-13-15-19(22)24-17-21(3,4)18-25-20(23)16-14-12-10-8-6-2/h5-18H2,1-4H3

> <InChI Key_QSARr>
WFXHUBZUIFLWCV-UHFFFAOYSA-N

> <Salt_Solvent>


> <Salt_Solvent_ID>
0

> <Number of connected components>
1

$$$$
Molecule_1895
  Mrv2316 01072400032D          

 20 19  0  0  0  0            999 V2000
    7.2336    5.0013    0.0000 C   0  0  0  0  0  0  0  0  0  0  0  0
    7.9481    5.4138    0.0000 C   0  0  0  0  0  0  0  0  0  0  0  0
    8.6625    5.0013    0.0000 C   0  0  0  0  0  0  0  0  0  0  0  0
    9.3770    5.4138    0.0000 C   0  0  0  0  0  0  0  0  0  0  0  0
   10.0915    5.0013    0.0000 C   0  0  0  0  0  0  0  0  0  0  0  0
   10.8060    5.4138    0.0000 C   0  0  0  0  0  0  0  0  0  0  0  0
   11.5204    5.0013    0.0000 C   0  0  0  0  0  0  0  0  0  0  0  0
   12.2349    5.4138    0.0000 C   0  0  0  0  0  0  0  0  0  0  0  0
   12.9494    5.0013    0.0000 C   0  0  0  0  0  0  0  0  0  0  0  0
   13.6638    5.4138    0.0000 C   0  0  0  0  0  0  0  0  0  0  0  0
   14.3783    5.0013    0.0000 C   0  0  0  0  0  0  0  0  0  0  0  0
   15.0928    5.4138    0.0000 C   0  0  0  0  0  0  0  0  0  0  0  0
   15.8072    5.0013    0.0000 C   0  0  0  0  0  0  0  0  0  0  0  0
   16.5217    5.4138    0.0000 C   0  0  0  0  0  0  0  0  0  0  0  0
   17.2362    5.0013    0.0000 O   0  0  0  0  0  0  0  0  0  0  0  0
   17.9507    5.4138    0.0000 C   0  0  0  0  0  0  0  0  0  0  0  0
   17.9507    6.2388    0.0000 O   0  0  0  0  0  0  0  0  0  0  0  0
   18.6651    5.0013    0.0000 C   0  0  0  0  0  0  0  0  0  0  0  0
   19.3796    5.4138    0.0000 C   0  0  0  0  0  0  0  0  0  0  0  0
   18.6651    4.1763    0.0000 O   0  0  0  0  0  0  0  0  0  0  0  0
  1  2  1  0  0  0  0
  2  3  1  0  0  0  0
  3  4  1  0  0  0  0
  4  5  1  0  0  0  0
  5  6  1  0  0  0  0
  6  7  1  0  0  0  0
  7  8  1  0  0  0  0
  8  9  1  0  0  0  0
  9 10  1  0  0  0  0
 10 11  1  0  0  0  0
 11 12  1  0  0  0  0
 12 13  1  0  0  0  0
 13 14  1  0  0  0  0
 14 15  1  0  0  0  0
 15 16  1  0  0  0  0
 16 17  2  0  0  0  0
 16 18  1  0  0  0  0
 18 19  1  0  0  0  0
 18 20  1  0  0  0  0
M  END
> <RowID>
1895

> <Original_SMILES>
CCCCCCCCCCCCCCOC(=O)C(C)O

> <Canonical_QSARr>
CCCCCCCCCCCCCCOC(=O)C(C)O

> <InChI_Code_QSARr>
InChI=1S/C17H34O3/c1-3-4-5-6-7-8-9-10-11-12-13-14-15-20-17(19)16(2)18/h16,18H,3-15H2,1-2H3

> <InChI Key_QSARr>
BORJONZPSTVSFP-UHFFFAOYSA-N

> <Salt_Solvent>


> <Salt_Solvent_ID>
0

> <Number of connected components>
1

$$$$
Molecule_1896
  Mrv2316 01072400032D          

 23 22  0  0  0  0            999 V2000
   -2.9092    3.2704    0.0000 C   0  0  0  0  0  0  0  0  0  0  0  0
   -2.1947    2.8579    0.0000 C   0  0  0  0  0  0  0  0  0  0  0  0
   -1.4802    3.2704    0.0000 C   0  0  0  0  0  0  0  0  0  0  0  0
   -0.7658    2.8579    0.0000 C   0  0  0  0  0  0  0  0  0  0  0  0
   -0.0513    3.2704    0.0000 C   0  0  0  0  0  0  0  0  0  0  0  0
    0.6632    2.8579    0.0000 C   0  0  0  0  0  0  0  0  0  0  0  0
    1.3776    3.2704    0.0000 C   0  0  0  0  0  0  0  0  0  0  0  0
    2.0921    2.8579    0.0000 C   0  0  0  0  0  0  0  0  0  0  0  0
    2.8066    3.2704    0.0000 C   0  0  0  0  0  0  0  0  0  0  0  0
    3.5211    2.8579    0.0000 C   0  0  0  0  0  0  0  0  0  0  0  0
    4.2355    3.2704    0.0000 C   0  0  0  0  0  0  0  0  0  0  0  0
    4.9500    2.8579    0.0000 C   0  0  0  0  0  0  0  0  0  0  0  0
    5.6645    3.2704    0.0000 C   0  0  0  0  0  0  0  0  0  0  0  0
    6.3789    2.8579    0.0000 C   0  0  0  0  0  0  0  0  0  0  0  0
    7.0934    3.2704    0.0000 C   0  0  0  0  0  0  0  0  0  0  0  0
    7.8079    2.8579    0.0000 C   0  0  0  0  0  0  0  0  0  0  0  0
    8.5224    3.2704    0.0000 C   0  0  0  0  0  0  0  0  0  0  0  0
    9.2368    2.8579    0.0000 C   0  0  0  0  0  0  0  0  0  0  0  0
    9.2368    2.0329    0.0000 O   0  0  0  0  0  0  0  0  0  0  0  0
    9.9513    3.2704    0.0000 O   0  0  0  0  0  0  0  0  0  0  0  0
   10.6658    2.8579    0.0000 C   0  0  0  0  0  0  0  0  0  0  0  0
   11.3802    3.2704    0.0000 C   0  0  0  0  0  0  0  0  0  0  0  0
   10.6658    2.0329    0.0000 C   0  0  0  0  0  0  0  0  0  0  0  0
  1  2  1  0  0  0  0
  2  3  1  0  0  0  0
  3  4  1  0  0  0  0
  4  5  1  0  0  0  0
  5  6  1  0  0  0  0
  6  7  1  0  0  0  0
  7  8  1  0  0  0  0
  9  8  1  4  0  0  0
  9 10  2  0  0  0  0
 10 11  1  0  0  0  0
 11 12  1  0  0  0  0
 12 13  1  0  0  0  0
 13 14  1  0  0  0  0
 14 15  1  0  0  0  0
 15 16  1  0  0  0  0
 16 17  1  0  0  0  0
 17 18  1  0  0  0  0
 18 19  2  0  0  0  0
 18 20  1  0  0  0  0
 20 21  1  0  0  0  0
 21 22  1  0  0  0  0
 21 23  1  0  0  0  0
M  END
> <RowID>
1896

> <Original_SMILES>
CCCCCCCCC=CCCCCCCCC(=O)OC(C)C

> <Canonical_QSARr>
CCCCCCCCC=CCCCCCCCC(=O)OC(C)C

> <InChI_Code_QSARr>
InChI=1S/C21H40O2/c1-4-5-6-7-8-9-10-11-12-13-14-15-16-17-18-19-21(22)23-20(2)3/h11-12,20H,4-10,13-19H2,1-3H3

> <InChI Key_QSARr>
PZQSQRCNMZGWFT-UHFFFAOYSA-N

> <Salt_Solvent>


> <Salt_Solvent_ID>
0

> <Number of connected components>
1

$$$$
Molecule_1897
  Mrv2316 01072400032D          

 56 59  0  0  0  0            999 V2000
   -5.2947    4.5596    0.0000 O   0  0  0  0  0  0  0  0  0  0  0  0
   -5.2947    3.7346    0.0000 S   0  0  0  0  0  0  0  0  0  0  0  0
   -6.1197    3.7346    0.0000 O   0  0  0  0  0  0  0  0  0  0  0  0
   -4.4697    3.7346    0.0000 O   0  0  0  0  0  0  0  0  0  0  0  0
   -5.2947    2.9096    0.0000 O   0  0  0  0  0  0  0  0  0  0  0  0
   -4.5803    2.4971    0.0000 C   0  0  0  0  0  0  0  0  0  0  0  0
   -4.5803    1.6721    0.0000 C   0  0  0  0  0  0  0  0  0  0  0  0
   -3.8658    1.2596    0.0000 S   0  0  0  0  0  0  0  0  0  0  0  0
   -3.1513    0.8471    0.0000 C   0  0  0  0  0  0  0  0  0  0  0  0
   -3.1513    0.0221    0.0000 C   0  0  0  0  0  0  0  0  0  0  0  0
   -2.4369   -0.3904    0.0000 C   0  0  0  0  0  0  0  0  0  0  0  0
   -1.7224    0.0221    0.0000 C   0  0  0  0  0  0  0  0  0  0  0  0
   -1.0079   -0.3904    0.0000 N   0  0  0  0  0  0  0  0  0  0  0  0
   -0.2934    0.0221    0.0000 N   0  0  0  0  0  0  0  0  0  0  0  0
    0.4210   -0.3904    0.0000 C   0  0  0  0  0  0  0  0  0  0  0  0
    1.1355    0.0221    0.0000 C   0  0  0  0  0  0  0  0  0  0  0  0
    1.1355    0.8471    0.0000 O   0  0  0  0  0  0  0  0  0  0  0  0
    1.8500   -0.3904    0.0000 C   0  0  0  0  0  0  0  0  0  0  0  0
    2.5644    0.0221    0.0000 C   0  0  0  0  0  0  0  0  0  0  0  0
    2.5644    0.8471    0.0000 N   0  0  0  0  0  0  0  0  0  0  0  0
    3.2789   -0.3904    0.0000 C   0  0  0  0  0  0  0  0  0  0  0  0
    3.9934    0.0221    0.0000 N   0  0  0  0  0  0  0  0  0  0  0  0
    4.7078   -0.3904    0.0000 N   0  0  0  0  0  0  0  0  0  0  0  0
    5.4223    0.0221    0.0000 C   0  0  0  0  0  0  0  0  0  0  0  0
    6.1368   -0.3904    0.0000 C   0  0  0  0  0  0  0  0  0  0  0  0
    6.8513    0.0221    0.0000 C   0  0  0  0  0  0  0  0  0  0  0  0
    6.8513    0.8471    0.0000 C   0  0  0  0  0  0  0  0  0  0  0  0
    7.5657    1.2596    0.0000 S   0  0  0  0  0  0  0  0  0  0  0  0
    8.2802    1.6721    0.0000 C   0  0  0  0  0  0  0  0  0  0  0  0
    8.2802    2.4971    0.0000 C   0  0  0  0  0  0  0  0  0  0  0  0
    8.9947    2.9096    0.0000 O   0  0  0  0  0  0  0  0  0  0  0  0
    8.9947    3.7346    0.0000 S   0  0  0  0  0  0  0  0  0  0  0  0
    8.9947    4.5596    0.0000 O   0  0  0  0  0  0  0  0  0  0  0  0
    9.8197    3.7346    0.0000 O   0  0  0  0  0  0  0  0  0  0  0  0
    8.1697    3.7346    0.0000 O   0  0  0  0  0  0  0  0  0  0  0  0
    7.9782    0.5451    0.0000 O   0  0  0  0  0  0  0  0  0  0  0  0
    7.1532    1.9741    0.0000 O   0  0  0  0  0  0  0  0  0  0  0  0
    6.1368    1.2596    0.0000 C   0  0  0  0  0  0  0  0  0  0  0  0
    5.4223    0.8471    0.0000 C   0  0  0  0  0  0  0  0  0  0  0  0
    3.2789   -1.2154    0.0000 C   0  0  0  0  0  0  0  0  0  0  0  0
    2.5644   -1.6279    0.0000 C   0  0  0  0  0  0  0  0  0  0  0  0
    1.8500   -1.2154    0.0000 C   0  0  0  0  0  0  0  0  0  0  0  0
    1.1355   -1.6279    0.0000 C   0  0  0  0  0  0  0  0  0  0  0  0
    0.4210   -1.2154    0.0000 C   0  0  0  0  0  0  0  0  0  0  0  0
   -0.2934   -1.6279    0.0000 S   0  0  0  0  0  0  0  0  0  0  0  0
   -1.0079   -2.0404    0.0000 O   0  0  0  0  0  0  0  0  0  0  0  0
   -0.7059   -0.9134    0.0000 O   0  0  0  0  0  0  0  0  0  0  0  0
    0.1191   -2.3424    0.0000 O   0  0  0  0  0  0  0  0  0  0  0  0
    3.9934   -1.6279    0.0000 S   0  0  0  0  0  0  0  0  0  0  0  0
    4.7078   -2.0404    0.0000 O   0  0  0  0  0  0  0  0  0  0  0  0
    3.5809   -2.3424    0.0000 O   0  0  0  0  0  0  0  0  0  0  0  0
    4.4059   -0.9134    0.0000 O   0  0  0  0  0  0  0  0  0  0  0  0
   -1.7224    0.8471    0.0000 C   0  0  0  0  0  0  0  0  0  0  0  0
   -2.4369    1.2596    0.0000 C   0  0  0  0  0  0  0  0  0  0  0  0
   -4.2783    0.5451    0.0000 O   0  0  0  0  0  0  0  0  0  0  0  0
   -3.4533    1.9741    0.0000 O   0  0  0  0  0  0  0  0  0  0  0  0
  1  2  1  0  0  0  0
  2  3  2  0  0  0  0
  2  4  2  0  0  0  0
  2  5  1  0  0  0  0
  5  6  1  0  0  0  0
  6  7  1  0  0  0  0
  7  8  1  0  0  0  0
  8  9  1  0  0  0  0
 10  9  2  0  0  0  0
 11 10  1  0  0  0  0
 12 11  2  0  0  0  0
 13 12  1  4  0  0  0
 13 14  2  0  0  0  0
 14 15  1  0  0  0  0
 16 15  2  0  0  0  0
 16 17  1  0  0  0  0
 18 16  1  0  0  0  0
 18 19  1  0  0  0  0
 19 20  1  0  0  0  0
 19 21  2  0  0  0  0
 22 21  1  4  0  0  0
 22 23  2  0  0  0  0
 23 24  1  0  0  0  0
 25 24  2  0  0  0  0
 26 25  1  0  0  0  0
 27 26  2  0  0  0  0
 27 28  1  0  0  0  0
 28 29  1  0  0  0  0
 29 30  1  0  0  0  0
 30 31  1  0  0  0  0
 31 32  1  0  0  0  0
 32 33  1  0  0  0  0
 32 34  2  0  0  0  0
 32 35  2  0  0  0  0
 28 36  2  0  0  0  0
 28 37  2  0  0  0  0
 38 27  1  0  0  0  0
 39 38  2  0  0  0  0
 24 39  1  0  0  0  0
 21 40  1  0  0  0  0
 40 41  2  0  0  0  0
 41 42  1  0  0  0  0
 42 18  2  0  0  0  0
 43 42  1  0  0  0  0
 44 43  2  0  0  0  0
 15 44  1  0  0  0  0
 44 45  1  0  0  0  0
 45 46  1  0  0  0  0
 45 47  2  0  0  0  0
 45 48  2  0  0  0  0
 40 49  1  0  0  0  0
 49 50  1  0  0  0  0
 49 51  2  0  0  0  0
 49 52  2  0  0  0  0
 53 12  1  0  0  0  0
 54 53  2  0  0  0  0
  9 54  1  0  0  0  0
  8 55  2  0  0  0  0
  8 56  2  0  0  0  0
M  END
> <RowID>
1897

> <Original_SMILES>
[Na+].[Na+].[Na+].[Na+].NC1C2C(O)=C(N=NC3C=CC(=CC=3)S(=O)(=O)CCOS([O-])(=O)=O)C(=CC=2C=C(C=1N=NC1C=CC(=CC=1)S(=O)(=O)CCOS([O-])(=O)=O)S([O-])(=O)=O)S([O-])(=O)=O

> <Canonical_QSARr>
NC1C2=C(C=C(C(N=NC3=CC=C(C=C3)S(=O)(=O)CCOS(O)(=O)=O)=C2O)S(O)(=O)=O)C=C(C=1N=NC1=CC=C(C=C1)S(=O)(=O)CCOS(O)(=O)=O)S(O)(=O)=O

> <InChI_Code_QSARr>
InChI=1S/C26H25N5O19S6/c27-23-22-15(13-20(53(37,38)39)24(23)30-28-16-1-5-18(6-2-16)51(33,34)11-9-49-55(43,44)45)14-21(54(40,41)42)25(26(22)32)31-29-17-3-7-19(8-4-17)52(35,36)12-10-50-56(46,47)48/h1-8,13-14,32H,9-12,27H2,(H,37,38,39)(H,40,41,42)(H,43,44,45)(H,46,47,48)

> <InChI Key_QSARr>
OTKRGWXWWWNPKU-UHFFFAOYSA-N

> <Salt_Solvent>
[Na+]

> <Salt_Solvent_ID>
110

> <Number of connected components>
5

$$$$
Molecule_1898
  Mrv2316 01072400032D          

 19 18  0  0  0  0            999 V2000
    7.9480    5.4138    0.0000 C   0  0  0  0  0  0  0  0  0  0  0  0
    8.6625    5.0013    0.0000 C   0  0  0  0  0  0  0  0  0  0  0  0
    9.3770    5.4138    0.0000 C   0  0  0  0  0  0  0  0  0  0  0  0
   10.0914    5.0013    0.0000 C   0  0  0  0  0  0  0  0  0  0  0  0
   10.8059    5.4138    0.0000 C   0  0  0  0  0  0  0  0  0  0  0  0
   11.5204    5.0013    0.0000 C   0  0  0  0  0  0  0  0  0  0  0  0
   12.2349    5.4138    0.0000 C   0  0  0  0  0  0  0  0  0  0  0  0
   12.9493    5.0013    0.0000 C   0  0  0  0  0  0  0  0  0  0  0  0
   13.6638    5.4138    0.0000 C   0  0  0  0  0  0  0  0  0  0  0  0
   14.3783    5.0013    0.0000 C   0  0  0  0  0  0  0  0  0  0  0  0
   15.0927    5.4138    0.0000 C   0  0  0  0  0  0  0  0  0  0  0  0
   15.8072    5.0013    0.0000 C   0  0  0  0  0  0  0  0  0  0  0  0
   15.8072    4.1763    0.0000 O   0  0  0  0  0  0  0  0  0  0  0  0
   16.5217    5.4138    0.0000 O   0  0  0  0  0  0  0  0  0  0  0  0
   17.2362    5.0013    0.0000 C   0  0  0  0  0  0  0  0  0  0  0  0
   17.9506    5.4138    0.0000 C   0  0  0  0  0  0  0  0  0  0  0  0
   17.9506    6.2388    0.0000 O   0  0  0  0  0  0  0  0  0  0  0  0
   18.6651    5.0013    0.0000 C   0  0  0  0  0  0  0  0  0  0  0  0
   19.3796    5.4138    0.0000 O   0  0  0  0  0  0  0  0  0  0  0  0
  1  2  1  0  0  0  0
  2  3  1  0  0  0  0
  3  4  1  0  0  0  0
  4  5  1  0  0  0  0
  5  6  1  0  0  0  0
  6  7  1  0  0  0  0
  7  8  1  0  0  0  0
  8  9  1  0  0  0  0
  9 10  1  0  0  0  0
 10 11  1  0  0  0  0
 11 12  1  0  0  0  0
 12 13  2  0  0  0  0
 12 14  1  0  0  0  0
 14 15  1  0  0  0  0
 15 16  1  0  0  0  0
 16 17  1  0  0  0  0
 16 18  1  0  0  0  0
 18 19  1  0  0  0  0
M  END
> <RowID>
1898

> <Original_SMILES>
CCCCCCCCCCCC(=O)OCC(O)CO

> <Canonical_QSARr>
CCCCCCCCCCCC(=O)OCC(O)CO

> <InChI_Code_QSARr>
InChI=1S/C15H30O4/c1-2-3-4-5-6-7-8-9-10-11-15(18)19-13-14(17)12-16/h14,16-17H,2-13H2,1H3

> <InChI Key_QSARr>
ARIWANIATODDMH-UHFFFAOYSA-N

> <Salt_Solvent>


> <Salt_Solvent_ID>
0

> <Number of connected components>
1

$$$$
Molecule_1899
  Mrv2316 01072400032D          

 15 15  0  0  0  0            999 V2000
    0.7145    5.3625    0.0000 C   0  0  0  0  0  0  0  0  0  0  0  0
    0.7145    4.5375    0.0000 C   0  0  0  0  0  0  0  0  0  0  0  0
   -0.1105    4.5375    0.0000 C   0  0  0  0  0  0  0  0  0  0  0  0
    1.5395    4.5375    0.0000 C   0  0  0  0  0  0  0  0  0  0  0  0
    0.7145    3.7125    0.0000 C   0  0  0  0  0  0  0  0  0  0  0  0
    1.4289    3.3000    0.0000 O   0  0  0  0  0  0  0  0  0  0  0  0
   -0.0000    3.3000    0.0000 O   0  0  0  0  0  0  0  0  0  0  0  0
   -0.0000    2.4750    0.0000 C   0  0  0  0  0  0  0  0  0  0  0  0
   -0.7145    2.0625    0.0000 C   0  0  0  0  0  0  0  0  0  0  0  0
   -0.7145    1.2375    0.0000 C   0  0  0  0  0  0  0  0  0  0  0  0
   -1.4289    0.8250    0.0000 C   0  0  0  0  0  0  0  0  0  0  0  0
   -1.4289   -0.0000    0.0000 C   0  0  0  0  0  0  0  0  0  0  0  0
   -0.7145   -0.4125    0.0000 C   0  0  0  0  0  0  0  0  0  0  0  0
   -0.0000    0.0000    0.0000 C   0  0  0  0  0  0  0  0  0  0  0  0
   -0.0000    0.8250    0.0000 C   0  0  0  0  0  0  0  0  0  0  0  0
  1  2  1  0  0  0  0
  2  3  1  0  0  0  0
  2  4  1  0  0  0  0
  2  5  1  0  0  0  0
  5  6  2  0  0  0  0
  5  7  1  0  0  0  0
  7  8  1  0  0  0  0
  8  9  1  0  0  0  0
  9 10  1  0  0  0  0
 11 10  1  0  0  0  0
 12 11  2  0  0  0  0
 13 12  1  0  0  0  0
 14 13  2  0  0  0  0
 15 14  1  0  0  0  0
 10 15  2  0  0  0  0
M  END
> <RowID>
1899

> <Original_SMILES>
CC(C)(C)C(=O)OCCC1C=CC=CC=1

> <Canonical_QSARr>
CC(C)(C)C(=O)OCCC1C=CC=CC=1

> <InChI_Code_QSARr>
InChI=1S/C13H18O2/c1-13(2,3)12(14)15-10-9-11-7-5-4-6-8-11/h4-8H,9-10H2,1-3H3

> <InChI Key_QSARr>
DPVYDTACPLLHCF-UHFFFAOYSA-N

> <Salt_Solvent>


> <Salt_Solvent_ID>
0

> <Number of connected components>
1

$$$$
Molecule_1900
  Mrv2316 01072400032D          

 25 29  0  0  0  0            999 V2000
    5.6284    0.2405    0.0000 O   0  0  0  0  0  0  0  0  0  0  0  0
    4.8079    0.3265    0.0000 C   0  0  0  0  0  0  0  0  0  0  0  0
    4.4721    1.0801    0.0000 C   0  0  0  0  0  0  0  0  0  0  0  0
    3.6516    1.1661    0.0000 C   0  0  0  0  0  0  0  0  0  0  0  0
    3.1669    0.4985    0.0000 C   0  0  0  0  0  0  0  0  0  0  0  0
    2.3464    0.5845    0.0000 C   0  0  0  0  0  0  0  0  0  0  0  0
    2.0106    1.3381    0.0000 C   0  0  0  0  0  0  0  0  0  0  0  0
    1.1901    1.4241    0.0000 C   0  0  0  0  0  0  0  0  0  0  0  0
    0.8543    2.1777    0.0000 C   0  0  0  0  0  0  0  0  0  0  0  0
    1.3391    2.8452    0.0000 C   0  0  0  0  0  0  0  0  0  0  0  0
    1.0033    3.5988    0.0000 O   0  0  0  0  0  0  0  0  0  0  0  0
    2.1596    2.7592    0.0000 C   0  0  0  0  0  0  0  0  0  0  0  0
    2.4954    2.0057    0.0000 C   0  0  0  0  0  0  0  0  0  0  0  0
    3.3159    1.9197    0.0000 O   0  0  0  0  0  0  0  0  0  0  0  0
    1.5214    0.5843    0.0000 C   0  0  0  0  0  0  0  0  0  0  0  0
    1.2667   -0.2004    0.0000 C   0  0  0  0  0  0  0  0  0  0  0  0
    0.4598   -0.3722    0.0000 C   0  0  0  0  0  0  0  0  0  0  0  0
   -0.0924    0.2407    0.0000 C   0  0  0  0  0  0  0  0  0  0  0  0
    0.1623    1.0254    0.0000 C   0  0  0  0  0  0  0  0  0  0  0  0
    0.9692    1.1972    0.0000 C   0  0  0  0  0  0  0  0  0  0  0  0
    1.9343   -0.6852    0.0000 C   0  0  0  0  0  0  0  0  0  0  0  0
    1.9345   -1.5102    0.0000 O   0  0  0  0  0  0  0  0  0  0  0  0
    2.6016   -0.2000    0.0000 O   0  0  0  0  0  0  0  0  0  0  0  0
    3.5027   -0.2551    0.0000 C   0  0  0  0  0  0  0  0  0  0  0  0
    4.3232   -0.3411    0.0000 C   0  0  0  0  0  0  0  0  0  0  0  0
  1  2  1  0  0  0  0
  3  2  1  0  0  0  0
  4  3  2  0  0  0  0
  4  5  1  0  0  0  0
  5  6  1  0  0  0  0
  6  7  1  0  0  0  0
  8  7  2  0  0  0  0
  9  8  1  0  0  0  0
 10  9  2  0  0  0  0
 10 11  1  0  0  0  0
 12 10  1  0  0  0  0
 13 12  2  0  0  0  0
  7 13  1  0  0  0  0
 13 14  1  0  0  0  0
 14  4  1  0  0  0  0
 15  6  1  0  0  0  0
 15 16  2  0  0  0  0
 16 17  1  0  0  0  0
 17 18  2  0  0  0  0
 18 19  1  0  0  0  0
 19 20  2  0  0  0  0
 20 15  1  0  0  0  0
 21 16  1  0  0  0  0
 21 22  2  0  0  0  0
 23 21  1  0  0  0  0
  6 23  1  0  0  0  0
 24  5  2  0  0  0  0
 25 24  1  0  0  0  0
  2 25  2  0  0  0  0
M  END
> <RowID>
1900

> <Original_SMILES>
[Na+].[Na+].[O-]C1=CC2OC3C=C([O-])C=CC=3C3(OC(=O)C4C=CC=CC3=4)C=2C=C1

> <Canonical_QSARr>
OC1C=C2OC3=CC(O)=CC=C3C3(OC(=O)C4C=CC=CC3=4)C2=CC=1

> <InChI_Code_QSARr>
InChI=1S/C20H12O5/c21-11-5-7-15-17(9-11)24-18-10-12(22)6-8-16(18)20(15)14-4-2-1-3-13(14)19(23)25-20/h1-10,21-22H

> <InChI Key_QSARr>
GNBHRKFJIUUOQI-UHFFFAOYSA-N

> <Salt_Solvent>
[Na+]

> <Salt_Solvent_ID>
110

> <Number of connected components>
3

$$$$
Molecule_1901
  Mrv2316 01072400032D          

  5  4  0  0  0  0            999 V2000
    0.8250    1.4289    0.0000 N   0  0  0  0  0  0  0  0  0  0  0  0
    1.2375    0.7145    0.0000 N   0  0  0  0  0  0  0  0  0  0  0  0
    0.8250   -0.0000    0.0000 C   0  0  0  0  0  0  0  0  0  0  0  0
    1.2375   -0.7145    0.0000 N   0  0  0  0  0  0  0  0  0  0  0  0
    0.0000   -0.0000    0.0000 S   0  0  0  0  0  0  0  0  0  0  0  0
  1  2  1  0  0  0  0
  2  3  1  0  0  0  0
  3  4  1  0  0  0  0
  3  5  2  0  0  0  0
M  END
> <RowID>
1901

> <Original_SMILES>
NNC(N)=S

> <Canonical_QSARr>
NNC(N)=S

> <InChI_Code_QSARr>
InChI=1S/CH5N3S/c2-1(5)4-3/h3H2,(H3,2,4,5)

> <InChI Key_QSARr>
BRWIZMBXBAOCCF-UHFFFAOYSA-N

> <Salt_Solvent>


> <Salt_Solvent_ID>
0

> <Number of connected components>
1

$$$$
Molecule_1902
  Mrv2316 01072400032D          

 18 18  0  0  0  0            999 V2000
    3.3342    1.1000    0.0000 O   0  0  0  0  0  0  0  0  0  0  0  0
    2.6197    0.6875    0.0000 C   0  0  0  0  0  0  0  0  0  0  0  0
    1.9053    1.1000    0.0000 C   0  0  0  0  0  0  0  0  0  0  0  0
    1.1908    0.6875    0.0000 N   0  0  0  0  0  0  0  0  0  0  0  0
    0.4763    1.1000    0.0000 C   0  0  0  0  0  0  0  0  0  0  0  0
    0.4763    1.9250    0.0000 O   0  0  0  0  0  0  0  0  0  0  0  0
   -0.2382    0.6875    0.0000 N   0  0  0  0  0  0  0  0  0  0  0  0
   -0.9526    1.1000    0.0000 C   0  0  0  0  0  0  0  0  0  0  0  0
   -0.9526    1.9250    0.0000 C   0  0  0  0  0  0  0  0  0  0  0  0
   -1.6671    2.3375    0.0000 O   0  0  0  0  0  0  0  0  0  0  0  0
   -0.2382   -0.1375    0.0000 C   0  0  0  0  0  0  0  0  0  0  0  0
   -0.9526   -0.5500    0.0000 O   0  0  0  0  0  0  0  0  0  0  0  0
    0.4763   -0.5500    0.0000 N   0  0  0  0  0  0  0  0  0  0  0  0
    0.4763   -1.3750    0.0000 C   0  0  0  0  0  0  0  0  0  0  0  0
    1.1908   -1.7875    0.0000 C   0  0  0  0  0  0  0  0  0  0  0  0
    1.1908   -2.6125    0.0000 O   0  0  0  0  0  0  0  0  0  0  0  0
    1.1908   -0.1375    0.0000 C   0  0  0  0  0  0  0  0  0  0  0  0
    1.9053   -0.5500    0.0000 O   0  0  0  0  0  0  0  0  0  0  0  0
  1  2  1  0  0  0  0
  2  3  1  0  0  0  0
  3  4  1  0  0  0  0
  5  4  1  0  0  0  0
  5  6  2  0  0  0  0
  7  5  1  0  0  0  0
  7  8  1  0  0  0  0
  8  9  1  0  0  0  0
  9 10  1  0  0  0  0
 11  7  1  0  0  0  0
 11 12  2  0  0  0  0
 13 11  1  0  0  0  0
 13 14  1  0  0  0  0
 14 15  1  0  0  0  0
 15 16  1  0  0  0  0
 17 13  1  0  0  0  0
  4 17  1  0  0  0  0
 17 18  2  0  0  0  0
M  END
> <RowID>
1902

> <Original_SMILES>
OCCN1C(=O)N(CCO)C(=O)N(CCO)C1=O

> <Canonical_QSARr>
OCCN1C(=O)N(CCO)C(=O)N(CCO)C1=O

> <InChI_Code_QSARr>
InChI=1S/C9H15N3O6/c13-4-1-10-7(16)11(2-5-14)9(18)12(3-6-15)8(10)17/h13-15H,1-6H2

> <InChI Key_QSARr>
BPXVHIRIPLPOPT-UHFFFAOYSA-N

> <Salt_Solvent>


> <Salt_Solvent_ID>
0

> <Number of connected components>
1

$$$$
Molecule_1903
  Mrv2316 01072400032D          

  8  7  0  0  0  0            999 V2000
    1.7605    1.8414    0.0000 C   0  0  0  0  0  0  0  0  0  0  0  0
    2.4750    1.4289    0.0000 C   0  0  0  0  0  0  0  0  0  0  0  0
    3.1895    1.8414    0.0000 C   0  0  0  0  0  0  0  0  0  0  0  0
    3.9039    1.4289    0.0000 O   0  0  0  0  0  0  0  0  0  0  0  0
    4.6184    1.8414    0.0000 C   0  0  0  0  0  0  0  0  0  0  0  0
    5.3329    1.4289    0.0000 C   0  0  0  0  0  0  0  0  0  0  0  0
    6.0474    1.8414    0.0000 C   0  0  0  0  0  0  0  0  0  0  0  0
    5.3329    0.6039    0.0000 O   0  0  0  0  0  0  0  0  0  0  0  0
  1  2  1  0  0  0  0
  2  3  1  0  0  0  0
  3  4  1  0  0  0  0
  4  5  1  0  0  0  0
  5  6  1  0  0  0  0
  6  7  1  0  0  0  0
  6  8  1  0  0  0  0
M  END
> <RowID>
1903

> <Original_SMILES>
CCCOCC(C)O

> <Canonical_QSARr>
CCCOCC(C)O

> <InChI_Code_QSARr>
InChI=1S/C6H14O2/c1-3-4-8-5-6(2)7/h6-7H,3-5H2,1-2H3

> <InChI Key_QSARr>
FENFUOGYJVOCRY-UHFFFAOYSA-N

> <Salt_Solvent>


> <Salt_Solvent_ID>
0

> <Number of connected components>
1

$$$$
Molecule_1904
  Mrv2316 01072400032D          

 30 33  0  0  0  0            999 V2000
   -2.8340   -2.5162    0.0000 C   0  0  0  0  0  0  0  0  0  0  0  0
   -2.1196   -2.9287    0.0000 C   0  0  0  0  0  0  0  0  0  0  0  0
   -1.4051   -2.5162    0.0000 C   0  0  0  0  0  0  0  0  0  0  0  0
   -0.6906   -2.9287    0.0000 C   0  0  0  0  0  0  0  0  0  0  0  0
    0.0239   -2.5162    0.0000 C   0  0  0  0  0  0  0  0  0  0  0  0
    0.0239   -1.6912    0.0000 C   0  0  0  0  0  0  0  0  0  0  0  0
    0.7383   -1.2788    0.0000 C   0  0  0  0  0  0  0  0  0  0  0  0
    0.7383   -0.4537    0.0000 O   0  0  0  0  0  0  0  0  0  0  0  0
    1.4528   -0.0412    0.0000 C   0  0  0  0  0  0  0  0  0  0  0  0
    2.1673   -0.4537    0.0000 C   0  0  0  0  0  0  0  0  0  0  0  0
    2.8817   -0.0412    0.0000 O   0  0  0  0  0  0  0  0  0  0  0  0
    3.5962   -0.4537    0.0000 C   0  0  0  0  0  0  0  0  0  0  0  0
    3.5962   -1.2787    0.0000 O   0  0  0  0  0  0  0  0  0  0  0  0
    2.8817   -1.6912    0.0000 C   0  0  0  0  0  0  0  0  0  0  0  0
    2.8817   -2.5162    0.0000 C   0  0  0  0  0  0  0  0  0  0  0  0
    2.1673   -2.9287    0.0000 O   0  0  0  0  0  0  0  0  0  0  0  0
    3.5962   -2.9287    0.0000 C   0  0  0  0  0  0  0  0  0  0  0  0
    3.5962   -3.7537    0.0000 O   0  0  0  0  0  0  0  0  0  0  0  0
    2.1673   -1.2787    0.0000 C   0  0  0  0  0  0  0  0  0  0  0  0
    1.4528   -1.6913    0.0000 O   0  0  0  0  0  0  0  0  0  0  0  0
    4.3107   -0.0413    0.0000 C   0  0  0  0  0  0  0  0  0  0  0  0
    5.0251   -0.4538    0.0000 C   0  0  0  0  0  0  0  0  0  0  0  0
    5.7396   -0.0413    0.0000 C   0  0  0  0  0  0  0  0  0  0  0  0
    5.7396    0.7837    0.0000 C   0  0  0  0  0  0  0  0  0  0  0  0
    6.4541    1.1962    0.0000 C   0  0  0  0  0  0  0  0  0  0  0  0
    6.4541    2.0212    0.0000 C   0  0  0  0  0  0  0  0  0  0  0  0
    5.0251    1.1962    0.0000 C   0  0  0  0  0  0  0  0  0  0  0  0
    4.3107    0.7837    0.0000 C   0  0  0  0  0  0  0  0  0  0  0  0
   -0.6906   -1.2787    0.0000 C   0  0  0  0  0  0  0  0  0  0  0  0
   -1.4051   -1.6912    0.0000 C   0  0  0  0  0  0  0  0  0  0  0  0
  1  2  1  0  0  0  0
  2  3  1  0  0  0  0
  4  3  1  0  0  0  0
  5  4  2  0  0  0  0
  6  5  1  0  0  0  0
  6  7  1  0  0  0  0
  8  7  1  0  0  0  0
  9  8  1  0  0  0  0
 10  9  1  0  0  0  0
 10 11  1  0  0  0  0
 11 12  1  0  0  0  0
 12 13  1  0  0  0  0
 13 14  1  0  0  0  0
 14 15  1  0  0  0  0
 15 16  1  0  0  0  0
 15 17  1  0  0  0  0
 17 18  1  0  0  0  0
 14 19  1  0  0  0  0
 19 10  1  0  0  0  0
 20 19  1  0  0  0  0
  7 20  1  0  0  0  0
 12 21  1  0  0  0  0
 22 21  1  0  0  0  0
 23 22  2  0  0  0  0
 24 23  1  0  0  0  0
 24 25  1  0  0  0  0
 25 26  1  0  0  0  0
 27 24  2  0  0  0  0
 28 27  1  0  0  0  0
 21 28  2  0  0  0  0
 29  6  2  0  0  0  0
 30 29  1  0  0  0  0
  3 30  2  0  0  0  0
M  END
> <RowID>
1904

> <Original_SMILES>
CCC1C=CC(=CC=1)C1OCC2OC(OC(C2O1)C(O)CO)C1C=CC(CC)=CC=1

> <Canonical_QSARr>
CCC1C=CC(=CC=1)C1OCC2OC(OC(C2O1)C(O)CO)C1C=CC(CC)=CC=1

> <InChI_Code_QSARr>
InChI=1S/C24H30O6/c1-3-15-5-9-17(10-6-15)23-27-14-20-22(30-23)21(19(26)13-25)29-24(28-20)18-11-7-16(4-2)8-12-18/h5-12,19-26H,3-4,13-14H2,1-2H3

> <InChI Key_QSARr>
RPMMDFYGVMKCJU-UHFFFAOYSA-N

> <Salt_Solvent>


> <Salt_Solvent_ID>
0

> <Number of connected components>
1

$$$$
Molecule_1905
  Mrv2316 01072400032D          

 28 30  0  0  0  0            999 V2000
    7.1502   -1.7453    0.0000 C   0  0  0  0  0  0  0  0  0  0  0  0
    6.4358   -2.1578    0.0000 N   0  0  0  0  0  0  0  0  0  0  0  0
    6.4358   -2.9828    0.0000 C   0  0  0  0  0  0  0  0  0  0  0  0
    5.7213   -1.7453    0.0000 C   0  0  0  0  0  0  0  0  0  0  0  0
    5.0068   -1.3328    0.0000 C   0  0  0  0  0  0  0  0  0  0  0  0
    5.0068   -0.5078    0.0000 C   0  0  0  0  0  0  0  0  0  0  0  0
    5.7213   -0.0953    0.0000 C   0  0  0  0  0  0  0  0  0  0  0  0
    5.7213    0.7297    0.0000 C   0  0  0  0  0  0  0  0  0  0  0  0
    5.0068    1.1422    0.0000 C   0  0  0  0  0  0  0  0  0  0  0  0
    5.0068    1.9672    0.0000 C   0  0  0  0  0  0  0  0  0  0  0  0
    4.2923    0.7297    0.0000 C   0  0  0  0  0  0  0  0  0  0  0  0
    4.2923   -0.0953    0.0000 C   0  0  0  0  0  0  0  0  0  0  0  0
    6.1338   -1.0308    0.0000 C   0  0  0  0  0  0  0  0  0  0  0  0
    6.9588   -1.0308    0.0000 C   0  0  0  0  0  0  0  0  0  0  0  0
    5.3088   -2.4598    0.0000 C   0  0  0  0  0  0  0  0  0  0  0  0
    5.7213   -3.1742    0.0000 O   0  0  0  0  0  0  0  0  0  0  0  0
    4.4838   -2.4598    0.0000 C   0  0  0  0  0  0  0  0  0  0  0  0
    4.0713   -1.7453    0.0000 C   0  0  0  0  0  0  0  0  0  0  0  0
    3.2463   -1.7453    0.0000 C   0  0  0  0  0  0  0  0  0  0  0  0
    2.8338   -2.4598    0.0000 C   0  0  0  0  0  0  0  0  0  0  0  0
    2.0088   -2.4598    0.0000 N   0  0  0  0  0  0  0  0  0  0  0  0
    1.5963   -1.7453    0.0000 C   0  0  0  0  0  0  0  0  0  0  0  0
    0.7713   -1.7453    0.0000 C   0  0  0  0  0  0  0  0  0  0  0  0
    0.3588   -2.4598    0.0000 O   0  0  0  0  0  0  0  0  0  0  0  0
    0.7713   -3.1742    0.0000 C   0  0  0  0  0  0  0  0  0  0  0  0
    1.5963   -3.1742    0.0000 C   0  0  0  0  0  0  0  0  0  0  0  0
    3.2463   -3.1742    0.0000 C   0  0  0  0  0  0  0  0  0  0  0  0
    4.0713   -3.1742    0.0000 C   0  0  0  0  0  0  0  0  0  0  0  0
  1  2  1  0  0  0  0
  2  3  1  0  0  0  0
  2  4  1  0  0  0  0
  4  5  1  0  0  0  0
  5  6  1  0  0  0  0
  7  6  1  0  0  0  0
  8  7  2  0  0  0  0
  9  8  1  0  0  0  0
  9 10  1  0  0  0  0
 11  9  2  0  0  0  0
 12 11  1  0  0  0  0
  6 12  2  0  0  0  0
  4 13  1  0  0  0  0
 13 14  1  0  0  0  0
  4 15  1  0  0  0  0
 15 16  2  0  0  0  0
 15 17  1  0  0  0  0
 18 17  1  0  0  0  0
 19 18  2  0  0  0  0
 20 19  1  0  0  0  0
 20 21  1  0  0  0  0
 22 21  1  0  0  0  0
 23 22  1  0  0  0  0
 24 23  1  0  0  0  0
 25 24  1  0  0  0  0
 26 25  1  0  0  0  0
 21 26  1  0  0  0  0
 27 20  2  0  0  0  0
 28 27  1  0  0  0  0
 17 28  2  0  0  0  0
M  END
> <RowID>
1905

> <Original_SMILES>
CN(C)C(CC1C=CC(C)=CC=1)(CC)C(=O)C1C=CC(=CC=1)N1CCOCC1

> <Canonical_QSARr>
CN(C)C(CC1C=CC(C)=CC=1)(CC)C(=O)C1C=CC(=CC=1)N1CCOCC1

> <InChI_Code_QSARr>
InChI=1S/C24H32N2O2/c1-5-24(25(3)4,18-20-8-6-19(2)7-9-20)23(27)21-10-12-22(13-11-21)26-14-16-28-17-15-26/h6-13H,5,14-18H2,1-4H3

> <InChI Key_QSARr>
PUBNJSZGANKUGX-UHFFFAOYSA-N

> <Salt_Solvent>


> <Salt_Solvent_ID>
0

> <Number of connected components>
1

$$$$
Molecule_1906
  Mrv2316 01072400032D          

 17 19  0  0  0  0            999 V2000
    2.7845    2.2509    0.0000 C   0  0  0  0  0  0  0  0  0  0  0  0
    2.0701    1.8384    0.0000 C   0  0  0  0  0  0  0  0  0  0  0  0
    1.3556    2.2509    0.0000 C   0  0  0  0  0  0  0  0  0  0  0  0
    0.6411    1.8384    0.0000 C   0  0  0  0  0  0  0  0  0  0  0  0
   -0.1435    2.0933    0.0000 S   0  0  0  0  0  0  0  0  0  0  0  0
   -0.6284    1.4259    0.0000 C   0  0  0  0  0  0  0  0  0  0  0  0
   -0.1435    0.7584    0.0000 N   0  0  0  0  0  0  0  0  0  0  0  0
    0.6411    1.0134    0.0000 C   0  0  0  0  0  0  0  0  0  0  0  0
    1.3556    0.6009    0.0000 C   0  0  0  0  0  0  0  0  0  0  0  0
    2.0701    1.0134    0.0000 C   0  0  0  0  0  0  0  0  0  0  0  0
   -1.4534    1.4259    0.0000 C   0  0  0  0  0  0  0  0  0  0  0  0
   -1.8659    2.1403    0.0000 C   0  0  0  0  0  0  0  0  0  0  0  0
   -2.6909    2.1403    0.0000 C   0  0  0  0  0  0  0  0  0  0  0  0
   -3.1034    1.4259    0.0000 C   0  0  0  0  0  0  0  0  0  0  0  0
   -3.9284    1.4259    0.0000 N   0  0  0  0  0  0  0  0  0  0  0  0
   -2.6909    0.7114    0.0000 C   0  0  0  0  0  0  0  0  0  0  0  0
   -1.8659    0.7114    0.0000 C   0  0  0  0  0  0  0  0  0  0  0  0
  1  2  1  0  0  0  0
  3  2  1  0  0  0  0
  4  3  2  0  0  0  0
  4  5  1  0  0  0  0
  5  6  1  0  0  0  0
  6  7  2  0  0  0  0
  7  8  1  0  0  0  0
  8  4  1  0  0  0  0
  9  8  2  0  0  0  0
 10  9  1  0  0  0  0
  2 10  2  0  0  0  0
  6 11  1  0  0  0  0
 12 11  1  0  0  0  0
 13 12  2  0  0  0  0
 14 13  1  0  0  0  0
 14 15  1  0  0  0  0
 16 14  2  0  0  0  0
 17 16  1  0  0  0  0
 11 17  2  0  0  0  0
M  END
> <RowID>
1906

> <Original_SMILES>
CC1C=C2SC(=NC2=CC=1)C1C=CC(N)=CC=1

> <Canonical_QSARr>
CC1C=C2SC(=NC2=CC=1)C1C=CC(N)=CC=1

> <InChI_Code_QSARr>
InChI=1S/C14H12N2S/c1-9-2-7-12-13(8-9)17-14(16-12)10-3-5-11(15)6-4-10/h2-8H,15H2,1H3

> <InChI Key_QSARr>
XRTJYEIMLZALBD-UHFFFAOYSA-N

> <Salt_Solvent>


> <Salt_Solvent_ID>
0

> <Number of connected components>
1

$$$$
Molecule_1907
  Mrv2316 01072400032D          

 33 32  0  0  0  0            999 V2000
   -5.4434    0.1914    0.0000 C   0  0  0  0  0  0  0  0  0  0  0  0
   -4.6184    0.1914    0.0000 C   0  0  0  0  0  0  0  0  0  0  0  0
   -4.2059   -0.5230    0.0000 C   0  0  0  0  0  0  0  0  0  0  0  0
   -3.3809   -0.5230    0.0000 C   0  0  0  0  0  0  0  0  0  0  0  0
   -2.9684   -1.2375    0.0000 C   0  0  0  0  0  0  0  0  0  0  0  0
   -3.3809   -1.9520    0.0000 O   0  0  0  0  0  0  0  0  0  0  0  0
   -2.1434   -1.2375    0.0000 O   0  0  0  0  0  0  0  0  0  0  0  0
   -1.7309   -1.9520    0.0000 C   0  0  0  0  0  0  0  0  0  0  0  0
   -0.9059   -1.9520    0.0000 C   0  0  0  0  0  0  0  0  0  0  0  0
   -0.0809   -1.9520    0.0000 C   0  0  0  0  0  0  0  0  0  0  0  0
    0.3316   -2.6665    0.0000 O   0  0  0  0  0  0  0  0  0  0  0  0
    1.1566   -2.6665    0.0000 C   0  0  0  0  0  0  0  0  0  0  0  0
    1.5691   -1.9520    0.0000 O   0  0  0  0  0  0  0  0  0  0  0  0
    1.5691   -3.3809    0.0000 C   0  0  0  0  0  0  0  0  0  0  0  0
    2.3941   -3.3809    0.0000 C   0  0  0  0  0  0  0  0  0  0  0  0
    2.8066   -4.0954    0.0000 C   0  0  0  0  0  0  0  0  0  0  0  0
    3.6316   -4.0954    0.0000 C   0  0  0  0  0  0  0  0  0  0  0  0
   -0.9059   -2.7770    0.0000 C   0  0  0  0  0  0  0  0  0  0  0  0
   -0.1914   -3.1895    0.0000 O   0  0  0  0  0  0  0  0  0  0  0  0
   -0.1914   -4.0145    0.0000 C   0  0  0  0  0  0  0  0  0  0  0  0
   -0.9059   -4.4270    0.0000 O   0  0  0  0  0  0  0  0  0  0  0  0
    0.5231   -4.4270    0.0000 C   0  0  0  0  0  0  0  0  0  0  0  0
    0.5231   -5.2520    0.0000 C   0  0  0  0  0  0  0  0  0  0  0  0
    1.2375   -5.6645    0.0000 C   0  0  0  0  0  0  0  0  0  0  0  0
    1.2375   -6.4895    0.0000 C   0  0  0  0  0  0  0  0  0  0  0  0
   -0.9059   -1.1270    0.0000 C   0  0  0  0  0  0  0  0  0  0  0  0
   -0.1914   -0.7145    0.0000 O   0  0  0  0  0  0  0  0  0  0  0  0
    0.5231   -1.1270    0.0000 C   0  0  0  0  0  0  0  0  0  0  0  0
    0.5231   -1.9520    0.0000 O   0  0  0  0  0  0  0  0  0  0  0  0
    1.2375   -0.7145    0.0000 C   0  0  0  0  0  0  0  0  0  0  0  0
    1.9520   -1.1270    0.0000 C   0  0  0  0  0  0  0  0  0  0  0  0
    2.6665   -0.7145    0.0000 C   0  0  0  0  0  0  0  0  0  0  0  0
    3.3809   -1.1270    0.0000 C   0  0  0  0  0  0  0  0  0  0  0  0
  1  2  1  0  0  0  0
  2  3  1  0  0  0  0
  3  4  1  0  0  0  0
  4  5  1  0  0  0  0
  5  6  2  0  0  0  0
  5  7  1  0  0  0  0
  7  8  1  0  0  0  0
  8  9  1  0  0  0  0
  9 10  1  0  0  0  0
 10 11  1  0  0  0  0
 11 12  1  0  0  0  0
 12 13  2  0  0  0  0
 12 14  1  0  0  0  0
 14 15  1  0  0  0  0
 15 16  1  0  0  0  0
 16 17  1  0  0  0  0
  9 18  1  0  0  0  0
 18 19  1  0  0  0  0
 19 20  1  0  0  0  0
 20 21  2  0  0  0  0
 20 22  1  0  0  0  0
 22 23  1  0  0  0  0
 23 24  1  0  0  0  0
 24 25  1  0  0  0  0
  9 26  1  0  0  0  0
 26 27  1  0  0  0  0
 27 28  1  0  0  0  0
 28 29  2  0  0  0  0
 28 30  1  0  0  0  0
 30 31  1  0  0  0  0
 31 32  1  0  0  0  0
 32 33  1  0  0  0  0
M  END
> <RowID>
1907

> <Original_SMILES>
CCCCC(=O)OCC(COC(=O)CCCC)(COC(=O)CCCC)COC(=O)CCCC

> <Canonical_QSARr>
CCCCC(=O)OCC(COC(=O)CCCC)(COC(=O)CCCC)COC(=O)CCCC

> <InChI_Code_QSARr>
InChI=1S/C25H44O8/c1-5-9-13-21(26)30-17-25(18-31-22(27)14-10-6-2,19-32-23(28)15-11-7-3)20-33-24(29)16-12-8-4/h5-20H2,1-4H3

> <InChI Key_QSARr>
ZQYCVIGMGPFQQS-UHFFFAOYSA-N

> <Salt_Solvent>


> <Salt_Solvent_ID>
0

> <Number of connected components>
1

$$$$
Molecule_1910
  Mrv2316 01072400032D          

 20 19  0  0  0  0            999 V2000
    2.2836    2.1434    0.0000 O   0  0  0  0  0  0  0  0  0  0  0  0
    2.9980    2.5559    0.0000 C   0  0  0  0  0  0  0  0  0  0  0  0
    2.9980    3.3809    0.0000 O   0  0  0  0  0  0  0  0  0  0  0  0
    3.7125    2.1434    0.0000 C   0  0  0  0  0  0  0  0  0  0  0  0
    4.4270    2.5559    0.0000 C   0  0  0  0  0  0  0  0  0  0  0  0
    5.1415    2.1434    0.0000 C   0  0  0  0  0  0  0  0  0  0  0  0
    5.8559    2.5559    0.0000 C   0  0  0  0  0  0  0  0  0  0  0  0
    6.5704    2.1434    0.0000 C   0  0  0  0  0  0  0  0  0  0  0  0
    7.2849    2.5559    0.0000 C   0  0  0  0  0  0  0  0  0  0  0  0
    7.9993    2.1434    0.0000 C   0  0  0  0  0  0  0  0  0  0  0  0
    8.7138    2.5559    0.0000 C   0  0  0  0  0  0  0  0  0  0  0  0
    9.4283    2.1434    0.0000 C   0  0  0  0  0  0  0  0  0  0  0  0
   10.1427    2.5559    0.0000 C   0  0  0  0  0  0  0  0  0  0  0  0
   10.1427    3.3809    0.0000 C   0  0  0  0  0  0  0  0  0  0  0  0
   10.8572    3.7934    0.0000 C   0  0  0  0  0  0  0  0  0  0  0  0
   10.8572    4.6184    0.0000 C   0  0  0  0  0  0  0  0  0  0  0  0
   11.5717    5.0309    0.0000 C   0  0  0  0  0  0  0  0  0  0  0  0
   11.5717    5.8559    0.0000 C   0  0  0  0  0  0  0  0  0  0  0  0
   12.2862    6.2684    0.0000 C   0  0  0  0  0  0  0  0  0  0  0  0
   12.2862    7.0934    0.0000 C   0  0  0  0  0  0  0  0  0  0  0  0
  1  2  1  0  0  0  0
  2  3  2  0  0  0  0
  2  4  1  0  0  0  0
  4  5  1  0  0  0  0
  5  6  1  0  0  0  0
  6  7  1  0  0  0  0
  7  8  1  0  0  0  0
  8  9  1  0  0  0  0
  9 10  1  0  0  0  0
 11 10  1  4  0  0  0
 11 12  2  0  0  0  0
 12 13  1  0  0  0  0
 13 14  1  0  0  0  0
 14 15  1  0  0  0  0
 15 16  1  0  0  0  0
 16 17  1  0  0  0  0
 17 18  1  0  0  0  0
 18 19  1  0  0  0  0
 19 20  1  0  0  0  0
M  END
> <RowID>
1910

> <Original_SMILES>
[Cr+3].CCCCCCCCC=CCCCCCCCC([O-])=O.CCCCCCCCC=CCCCCCCCC([O-])=O.CCCCCCCCC=CCCCCCCCC([O-])=O

> <Canonical_QSARr>
CCCCCCCCC=CCCCCCCCC(O)=O

> <InChI_Code_QSARr>
InChI=1S/C18H34O2/c1-2-3-4-5-6-7-8-9-10-11-12-13-14-15-16-17-18(19)20/h9-10H,2-8,11-17H2,1H3,(H,19,20)

> <InChI Key_QSARr>
ZQPPMHVWECSIRJ-UHFFFAOYSA-N

> <Salt_Solvent>
[Cr+3]

> <Salt_Solvent_ID>
240

> <Number of connected components>
4

$$$$
Molecule_1911
  Mrv2316 01072400032D          

  3  2  0  0  0  0            999 V2000
    1.6500   -0.0000    0.0000 S   0  0  0  0  0  0  0  0  0  0  0  0
    2.4750   -0.0000    0.0000 C   0  0  0  0  0  0  0  0  0  0  0  0
    3.3000    0.0000    0.0000 N   0  0  0  0  0  0  0  0  0  0  0  0
  1  2  1  0  0  0  0
  2  3  3  0  0  0  0
M  END
> <RowID>
1911

> <Original_SMILES>
[Cu+].N#C[S-]

> <Canonical_QSARr>
N#CS

> <InChI_Code_QSARr>
InChI=1S/CHNS/c2-1-3/h3H

> <InChI Key_QSARr>
ZMZDMBWJUHKJPS-UHFFFAOYSA-N

> <Salt_Solvent>
[Cu+]

> <Salt_Solvent_ID>
290

> <Number of connected components>
2

$$$$
Molecule_1912
  Mrv2316 01072400032D          

 10 11  0  0  0  0            999 V2000
    0.8838   -2.1500    0.0000 O   0  0  0  0  0  0  0  0  0  0  0  0
    1.1387   -1.3654    0.0000 C   0  0  0  0  0  0  0  0  0  0  0  0
    0.6538   -0.6979    0.0000 O   0  0  0  0  0  0  0  0  0  0  0  0
    1.1387   -0.0305    0.0000 C   0  0  0  0  0  0  0  0  0  0  0  0
    1.9233   -0.2854    0.0000 C   0  0  0  0  0  0  0  0  0  0  0  0
    2.6378    0.1271    0.0000 C   0  0  0  0  0  0  0  0  0  0  0  0
    3.3523   -0.2854    0.0000 C   0  0  0  0  0  0  0  0  0  0  0  0
    3.3523   -1.1104    0.0000 C   0  0  0  0  0  0  0  0  0  0  0  0
    2.6378   -1.5229    0.0000 C   0  0  0  0  0  0  0  0  0  0  0  0
    1.9233   -1.1104    0.0000 C   0  0  0  0  0  0  0  0  0  0  0  0
  1  2  2  0  0  0  0
  3  2  1  0  0  0  0
  4  3  1  0  0  0  0
  5  4  1  0  0  0  0
  5  6  2  0  0  0  0
  6  7  1  0  0  0  0
  7  8  2  0  0  0  0
  8  9  1  0  0  0  0
  9 10  2  0  0  0  0
  2 10  1  0  0  0  0
 10  5  1  0  0  0  0
M  END
> <RowID>
1912

> <Original_SMILES>
O=C1OCC2=CC=CC=C21

> <Canonical_QSARr>
O=C1OCC2=CC=CC=C21

> <InChI_Code_QSARr>
InChI=1S/C8H6O2/c9-8-7-4-2-1-3-6(7)5-10-8/h1-4H,5H2

> <InChI Key_QSARr>
WNZQDUSMALZDQF-UHFFFAOYSA-N

> <Salt_Solvent>


> <Salt_Solvent_ID>
0

> <Number of connected components>
1

$$$$
Molecule_1913
  Mrv2316 01072400032D          

 12 12  0  0  0  0            999 V2000
   -0.2691   -3.3045    0.0000 C   0  0  0  0  0  0  0  0  0  0  0  0
    0.4454   -2.8920    0.0000 C   0  0  0  0  0  0  0  0  0  0  0  0
    1.1598   -3.3045    0.0000 C   0  0  0  0  0  0  0  0  0  0  0  0
    1.8743   -2.8920    0.0000 C   0  0  0  0  0  0  0  0  0  0  0  0
    2.5888   -3.3045    0.0000 C   0  0  0  0  0  0  0  0  0  0  0  0
    3.3033   -2.8920    0.0000 C   0  0  0  0  0  0  0  0  0  0  0  0
    4.0177   -3.3045    0.0000 C   0  0  0  0  0  0  0  0  0  0  0  0
    4.1040   -4.1249    0.0000 C   0  0  0  0  0  0  0  0  0  0  0  0
    4.9109   -4.2965    0.0000 C   0  0  0  0  0  0  0  0  0  0  0  0
    5.3234   -3.5820    0.0000 C   0  0  0  0  0  0  0  0  0  0  0  0
    6.1439   -3.4958    0.0000 O   0  0  0  0  0  0  0  0  0  0  0  0
    4.7714   -2.9689    0.0000 O   0  0  0  0  0  0  0  0  0  0  0  0
  1  2  1  0  0  0  0
  2  3  1  0  0  0  0
  3  4  1  0  0  0  0
  4  5  1  0  0  0  0
  5  6  1  0  0  0  0
  6  7  1  0  0  0  0
  8  7  1  0  0  0  0
  9  8  1  0  0  0  0
 10  9  1  0  0  0  0
 10 11  2  0  0  0  0
 12 10  1  0  0  0  0
  7 12  1  0  0  0  0
M  END
> <RowID>
1913

> <Original_SMILES>
CCCCCCC1CCC(=O)O1

> <Canonical_QSARr>
CCCCCCC1CCC(=O)O1

> <InChI_Code_QSARr>
InChI=1S/C10H18O2/c1-2-3-4-5-6-9-7-8-10(11)12-9/h9H,2-8H2,1H3

> <InChI Key_QSARr>
IFYYFLINQYPWGJ-UHFFFAOYSA-N

> <Salt_Solvent>


> <Salt_Solvent_ID>
0

> <Number of connected components>
1

$$$$
Molecule_1914
  Mrv2316 01072400032D          

 27 30  0  0  0  0            999 V2000
    3.6425   -2.7529    0.0000 N   0  0  0  0  0  0  0  0  0  0  0  0
    2.8579   -2.4980    0.0000 N   0  0  0  0  0  0  0  0  0  0  0  0
    2.8579   -1.6730    0.0000 C   0  0  0  0  0  0  0  0  0  0  0  0
    2.1434   -1.2605    0.0000 N   0  0  0  0  0  0  0  0  0  0  0  0
    1.4289   -1.6730    0.0000 C   0  0  0  0  0  0  0  0  0  0  0  0
    0.7145   -1.2605    0.0000 C   0  0  0  0  0  0  0  0  0  0  0  0
   -0.0000   -1.6730    0.0000 C   0  0  0  0  0  0  0  0  0  0  0  0
   -0.0000   -2.4980    0.0000 C   0  0  0  0  0  0  0  0  0  0  0  0
    0.7145   -2.9105    0.0000 C   0  0  0  0  0  0  0  0  0  0  0  0
    1.4289   -2.4980    0.0000 C   0  0  0  0  0  0  0  0  0  0  0  0
    2.1434   -2.9105    0.0000 C   0  0  0  0  0  0  0  0  0  0  0  0
    2.1434   -3.7355    0.0000 O   0  0  0  0  0  0  0  0  0  0  0  0
    3.6425   -1.4180    0.0000 C   0  0  0  0  0  0  0  0  0  0  0  0
    3.8974   -0.6334    0.0000 N   0  0  0  0  0  0  0  0  0  0  0  0
    4.7044   -0.4619    0.0000 N   0  0  0  0  0  0  0  0  0  0  0  0
    4.9594    0.3227    0.0000 C   0  0  0  0  0  0  0  0  0  0  0  0
    5.7663    0.4943    0.0000 C   0  0  0  0  0  0  0  0  0  0  0  0
    6.0213    1.2789    0.0000 C   0  0  0  0  0  0  0  0  0  0  0  0
    5.4692    1.8920    0.0000 C   0  0  0  0  0  0  0  0  0  0  0  0
    5.7242    2.6766    0.0000 Cl  0  0  0  0  0  0  0  0  0  0  0  0
    4.6623    1.7205    0.0000 C   0  0  0  0  0  0  0  0  0  0  0  0
    4.4073    0.9358    0.0000 C   0  0  0  0  0  0  0  0  0  0  0  0
    3.6003    0.7643    0.0000 N   0  3  0  0  0  0  0  0  0  0  0  0
    3.3454   -0.0203    0.0000 O   0  5  0  0  0  0  0  0  0  0  0  0
    3.0483    1.3774    0.0000 O   0  0  0  0  0  0  0  0  0  0  0  0
    4.1274   -2.0855    0.0000 C   0  0  0  0  0  0  0  0  0  0  0  0
    4.9524   -2.0855    0.0000 C   0  0  0  0  0  0  0  0  0  0  0  0
  2  1  1  0  0  0  0
  2  3  1  0  0  0  0
  3  4  2  0  0  0  0
  4  5  1  0  0  0  0
  6  5  1  0  0  0  0
  7  6  2  0  0  0  0
  8  7  1  0  0  0  0
  9  8  2  0  0  0  0
 10  9  1  0  0  0  0
  5 10  2  0  0  0  0
 10 11  1  0  0  0  0
 11  2  1  0  0  0  0
 11 12  2  0  0  0  0
 13  3  1  0  0  0  0
 14 13  1  4  0  0  0
 14 15  2  0  0  0  0
 15 16  1  0  0  0  0
 17 16  1  0  0  0  0
 18 17  2  0  0  0  0
 19 18  1  0  0  0  0
 19 20  1  0  0  0  0
 21 19  2  0  0  0  0
 22 21  1  0  0  0  0
 16 22  2  0  0  0  0
 22 23  1  0  0  0  0
 23 24  1  0  0  0  0
 23 25  2  0  0  0  0
 26 13  1  0  0  0  0
  1 26  2  0  0  0  0
 26 27  1  0  0  0  0
M  CHG  2  23   1  24  -1
M  END
> <RowID>
1914

> <Original_SMILES>
CC1NN2C(=NC3C=CC=CC=3C2=O)C=1N=NC1=CC=C(Cl)C=C1[N+]([O-])=O

> <Canonical_QSARr>
CC1=NN2C(=NC3C=CC=CC=3C2=O)C1N=NC1C=CC(Cl)=CC=1[N+]([O-])=O

> <InChI_Code_QSARr>
InChI=1S/C17H11ClN6O3/c1-9-15(21-20-13-7-6-10(18)8-14(13)24(26)27)16-19-12-5-3-2-4-11(12)17(25)23(16)22-9/h2-8,15H,1H3

> <InChI Key_QSARr>
CRHBNBYJKFKQIM-UHFFFAOYSA-N

> <Salt_Solvent>


> <Salt_Solvent_ID>
0

> <Number of connected components>
1

$$$$
Molecule_1915
  Mrv2316 01072400032D          

 15 14  0  0  0  0            999 V2000
    5.1414    4.6184    0.0000 O   0  5  0  0  0  0  0  0  0  0  0  0
    5.1414    3.7934    0.0000 N   0  3  0  0  0  0  0  0  0  0  0  0
    4.4270    3.3809    0.0000 O   0  0  0  0  0  0  0  0  0  0  0  0
    5.8559    3.3809    0.0000 O   0  0  0  0  0  0  0  0  0  0  0  0
    5.8559    2.5559    0.0000 C   0  0  0  0  0  0  0  0  0  0  0  0
    5.1414    2.1434    0.0000 C   0  0  0  0  0  0  0  0  0  0  0  0
    4.4270    2.5559    0.0000 O   0  0  0  0  0  0  0  0  0  0  0  0
    3.7125    2.1434    0.0000 N   0  3  0  0  0  0  0  0  0  0  0  0
    2.9980    2.5559    0.0000 O   0  5  0  0  0  0  0  0  0  0  0  0
    3.7125    1.3184    0.0000 O   0  0  0  0  0  0  0  0  0  0  0  0
    6.5704    2.1434    0.0000 C   0  0  0  0  0  0  0  0  0  0  0  0
    7.2848    2.5559    0.0000 O   0  0  0  0  0  0  0  0  0  0  0  0
    7.9993    2.1434    0.0000 N   0  3  0  0  0  0  0  0  0  0  0  0
    8.7138    2.5559    0.0000 O   0  5  0  0  0  0  0  0  0  0  0  0
    7.9993    1.3184    0.0000 O   0  0  0  0  0  0  0  0  0  0  0  0
  1  2  1  0  0  0  0
  2  3  2  0  0  0  0
  2  4  1  0  0  0  0
  4  5  1  0  0  0  0
  5  6  1  0  0  0  0
  6  7  1  0  0  0  0
  7  8  1  0  0  0  0
  8  9  1  0  0  0  0
  8 10  2  0  0  0  0
  5 11  1  0  0  0  0
 11 12  1  0  0  0  0
 12 13  1  0  0  0  0
 13 14  1  0  0  0  0
 13 15  2  0  0  0  0
M  CHG  6   1  -1   2   1   8   1   9  -1  13   1  14  -1
M  END
> <RowID>
1915

> <Original_SMILES>
[O-][N+](=O)OC(CO[N+]([O-])=O)CO[N+]([O-])=O

> <Canonical_QSARr>
[O-][N+](=O)OC(CO[N+]([O-])=O)CO[N+]([O-])=O

> <InChI_Code_QSARr>
InChI=1S/C3H5N3O9/c7-4(8)13-1-3(15-6(11)12)2-14-5(9)10/h3H,1-2H2

> <InChI Key_QSARr>
SNIOPGDIGTZGOP-UHFFFAOYSA-N

> <Salt_Solvent>


> <Salt_Solvent_ID>
0

> <Number of connected components>
1

$$$$
Molecule_1918
  Mrv2316 01072400032D          

 14 14  0  0  0  0            999 V2000
    0.9696   -0.1473    0.0000 C   0  0  0  0  0  0  0  0  0  0  0  0
    1.6841    0.2652    0.0000 C   0  0  0  0  0  0  0  0  0  0  0  0
    2.3986   -0.1473    0.0000 C   0  0  0  0  0  0  0  0  0  0  0  0
    3.1131    0.2652    0.0000 C   0  0  0  0  0  0  0  0  0  0  0  0
    3.1131    1.0902    0.0000 C   0  0  0  0  0  0  0  0  0  0  0  0
    2.3986    1.5027    0.0000 C   0  0  0  0  0  0  0  0  0  0  0  0
    2.9289    2.1347    0.0000 C   0  0  0  0  0  0  0  0  0  0  0  0
    1.8683    2.1347    0.0000 C   0  0  0  0  0  0  0  0  0  0  0  0
    1.6841    1.0902    0.0000 C   0  0  0  0  0  0  0  0  0  0  0  0
    0.9696    1.5027    0.0000 C   0  0  0  0  0  0  0  0  0  0  0  0
    0.9696    2.3277    0.0000 O   0  0  0  0  0  0  0  0  0  0  0  0
    0.2552    1.0902    0.0000 C   0  0  0  0  0  0  0  0  0  0  0  0
   -0.4593    1.5027    0.0000 C   0  0  0  0  0  0  0  0  0  0  0  0
   -1.1738    1.0902    0.0000 C   0  0  0  0  0  0  0  0  0  0  0  0
  1  2  1  0  0  0  0
  3  2  1  0  0  0  0
  4  3  1  0  0  0  0
  5  4  1  0  0  0  0
  6  5  1  0  0  0  0
  6  7  1  0  0  0  0
  6  8  1  0  0  0  0
  9  6  1  0  0  0  0
  2  9  2  0  0  0  0
  9 10  1  0  0  0  0
 10 11  2  0  0  0  0
 10 12  1  0  0  0  0
 12 13  2  0  0  0  0
 13 14  1  4  0  0  0
M  END
> <RowID>
1918

> <Original_SMILES>
CC1CCCC(C)(C)C=1C(=O)C=CC

> <Canonical_QSARr>
CC1CCCC(C)(C)C=1C(=O)C=CC

> <InChI_Code_QSARr>
InChI=1S/C13H20O/c1-5-7-11(14)12-10(2)8-6-9-13(12,3)4/h5,7H,6,8-9H2,1-4H3

> <InChI Key_QSARr>
BGTBFNDXYDYBEY-UHFFFAOYSA-N

> <Salt_Solvent>


> <Salt_Solvent_ID>
0

> <Number of connected components>
1

$$$$
Molecule_1919
  Mrv2316 01072400032D          

  4  3  0  0  0  0            999 V2000
    0.8250   -0.0000    0.0000 C   0  0  0  0  0  0  0  0  0  0  0  0
    1.2375    0.7145    0.0000 O   0  0  0  0  0  0  0  0  0  0  0  0
    1.2375   -0.7145    0.0000 O   0  0  0  0  0  0  0  0  0  0  0  0
    0.0000   -0.0000    0.0000 O   0  0  0  0  0  0  0  0  0  0  0  0
  1  2  1  0  0  0  0
  1  3  2  0  0  0  0
  1  4  1  0  0  0  0
M  END
> <RowID>
1919

> <Original_SMILES>
[Co+2].[O-]C([O-])=O

> <Canonical_QSARr>
OC(O)=O

> <InChI_Code_QSARr>
InChI=1S/CH2O3/c2-1(3)4/h(H2,2,3,4)

> <InChI Key_QSARr>
BVKZGUZCCUSVTD-UHFFFAOYSA-N

> <Salt_Solvent>
[Co+2]

> <Salt_Solvent_ID>
270

> <Number of connected components>
2

$$$$
Molecule_1921
  Mrv2316 01072400032D          

 20 19  0  0  0  0            999 V2000
   -1.3184   -7.0125    0.0000 C   0  0  0  0  0  0  0  0  0  0  0  0
   -1.3184   -6.1875    0.0000 C   0  0  0  0  0  0  0  0  0  0  0  0
   -0.4934   -6.1875    0.0000 C   0  0  0  0  0  0  0  0  0  0  0  0
   -2.1434   -6.1875    0.0000 C   0  0  0  0  0  0  0  0  0  0  0  0
   -1.3184   -5.3625    0.0000 O   0  0  0  0  0  0  0  0  0  0  0  0
   -0.6039   -4.9500    0.0000 O   0  0  0  0  0  0  0  0  0  0  0  0
   -0.6039   -4.1250    0.0000 C   0  0  0  0  0  0  0  0  0  0  0  0
    0.2211   -4.1250    0.0000 C   0  0  0  0  0  0  0  0  0  0  0  0
   -1.4289   -4.1250    0.0000 C   0  0  0  0  0  0  0  0  0  0  0  0
   -0.6039   -3.3000    0.0000 C   0  0  0  0  0  0  0  0  0  0  0  0
    0.1105   -2.8875    0.0000 C   0  0  0  0  0  0  0  0  0  0  0  0
    0.1105   -2.0625    0.0000 C   0  0  0  0  0  0  0  0  0  0  0  0
    0.9355   -2.0625    0.0000 C   0  0  0  0  0  0  0  0  0  0  0  0
   -0.7145   -2.0625    0.0000 C   0  0  0  0  0  0  0  0  0  0  0  0
    0.1105   -1.2375    0.0000 O   0  0  0  0  0  0  0  0  0  0  0  0
    0.8250   -0.8250    0.0000 O   0  0  0  0  0  0  0  0  0  0  0  0
    0.8250   -0.0000    0.0000 C   0  0  0  0  0  0  0  0  0  0  0  0
    0.8250    0.8250    0.0000 C   0  0  0  0  0  0  0  0  0  0  0  0
    1.6500   -0.0000    0.0000 C   0  0  0  0  0  0  0  0  0  0  0  0
    0.0000   -0.0000    0.0000 C   0  0  0  0  0  0  0  0  0  0  0  0
  1  2  1  0  0  0  0
  2  3  1  0  0  0  0
  2  4  1  0  0  0  0
  2  5  1  0  0  0  0
  5  6  1  0  0  0  0
  6  7  1  0  0  0  0
  7  8  1  0  0  0  0
  7  9  1  0  0  0  0
  7 10  1  0  0  0  0
 10 11  1  0  0  0  0
 11 12  1  0  0  0  0
 12 13  1  0  0  0  0
 12 14  1  0  0  0  0
 12 15  1  0  0  0  0
 15 16  1  0  0  0  0
 16 17  1  0  0  0  0
 17 18  1  0  0  0  0
 17 19  1  0  0  0  0
 17 20  1  0  0  0  0
M  END
> <RowID>
1921

> <Original_SMILES>
CC(C)(C)OOC(C)(C)CCC(C)(C)OOC(C)(C)C

> <Canonical_QSARr>
CC(C)(C)OOC(C)(C)CCC(C)(C)OOC(C)(C)C

> <InChI_Code_QSARr>
InChI=1S/C16H34O4/c1-13(2,3)17-19-15(7,8)11-12-16(9,10)20-18-14(4,5)6/h11-12H2,1-10H3

> <InChI Key_QSARr>
DMWVYCCGCQPJEA-UHFFFAOYSA-N

> <Salt_Solvent>


> <Salt_Solvent_ID>
0

> <Number of connected components>
1

$$$$
Molecule_1922
  Mrv2316 01072400032D          

  7  6  0  0  0  0            999 V2000
    1.7605    1.8414    0.0000 C   0  0  0  0  0  0  0  0  0  0  0  0
    2.4750    1.4289    0.0000 C   0  0  0  0  0  0  0  0  0  0  0  0
    3.1895    1.8414    0.0000 O   0  0  0  0  0  0  0  0  0  0  0  0
    3.9039    1.4289    0.0000 C   0  0  0  0  0  0  0  0  0  0  0  0
    4.6184    1.8414    0.0000 O   0  0  0  0  0  0  0  0  0  0  0  0
    5.3329    1.4289    0.0000 C   0  0  0  0  0  0  0  0  0  0  0  0
    6.0474    1.8414    0.0000 C   0  0  0  0  0  0  0  0  0  0  0  0
  1  2  1  0  0  0  0
  2  3  1  0  0  0  0
  3  4  1  0  0  0  0
  4  5  1  0  0  0  0
  5  6  1  0  0  0  0
  6  7  1  0  0  0  0
M  END
> <RowID>
1922

> <Original_SMILES>
CCOCOCC

> <Canonical_QSARr>
CCOCOCC

> <InChI_Code_QSARr>
InChI=1S/C5H12O2/c1-3-6-5-7-4-2/h3-5H2,1-2H3

> <InChI Key_QSARr>
KLKFAASOGCDTDT-UHFFFAOYSA-N

> <Salt_Solvent>


> <Salt_Solvent_ID>
0

> <Number of connected components>
1

$$$$
Molecule_1923
  Mrv2316 01072400032D          

 10 10  0  0  0  0            999 V2000
    1.5718    3.7125    0.0000 O   0  0  0  0  0  0  0  0  0  0  0  0
    0.8574    3.3000    0.0000 C   0  0  0  0  0  0  0  0  0  0  0  0
    0.8574    2.4750    0.0000 C   0  0  0  0  0  0  0  0  0  0  0  0
    0.1429    2.0625    0.0000 O   0  0  0  0  0  0  0  0  0  0  0  0
    0.1429    1.2375    0.0000 C   0  0  0  0  0  0  0  0  0  0  0  0
   -0.5716    0.8250    0.0000 C   0  0  0  0  0  0  0  0  0  0  0  0
   -0.5716   -0.0000    0.0000 C   0  0  0  0  0  0  0  0  0  0  0  0
    0.1429   -0.4125    0.0000 C   0  0  0  0  0  0  0  0  0  0  0  0
    0.8574    0.0000    0.0000 C   0  0  0  0  0  0  0  0  0  0  0  0
    0.8574    0.8250    0.0000 C   0  0  0  0  0  0  0  0  0  0  0  0
  1  2  1  0  0  0  0
  2  3  1  0  0  0  0
  3  4  1  0  0  0  0
  4  5  1  0  0  0  0
  6  5  1  0  0  0  0
  7  6  2  0  0  0  0
  8  7  1  0  0  0  0
  9  8  2  0  0  0  0
 10  9  1  0  0  0  0
  5 10  2  0  0  0  0
M  END
> <RowID>
1923

> <Original_SMILES>
OCCOC1C=CC=CC=1

> <Canonical_QSARr>
OCCOC1C=CC=CC=1

> <InChI_Code_QSARr>
InChI=1S/C8H10O2/c9-6-7-10-8-4-2-1-3-5-8/h1-5,9H,6-7H2

> <InChI Key_QSARr>
QCDWFXQBSFUVSP-UHFFFAOYSA-N

> <Salt_Solvent>


> <Salt_Solvent_ID>
0

> <Number of connected components>
1

$$$$
Molecule_1926
  Mrv2316 01072400032D          

 11 10  0  0  0  0            999 V2000
    1.2375    0.7145    0.0000 C   0  0  0  0  0  0  0  0  0  0  0  0
    0.8250   -0.0000    0.0000 C   0  0  0  0  0  0  0  0  0  0  0  0
    1.2375   -0.7145    0.0000 C   0  0  0  0  0  0  0  0  0  0  0  0
   -0.0000   -0.0000    0.0000 C   0  0  0  0  0  0  0  0  0  0  0  0
   -0.4125   -0.7145    0.0000 C   0  0  0  0  0  0  0  0  0  0  0  0
    0.0000   -1.4289    0.0000 C   0  0  0  0  0  0  0  0  0  0  0  0
   -0.4125   -2.1434    0.0000 C   0  0  0  0  0  0  0  0  0  0  0  0
   -1.1270   -1.7309    0.0000 C   0  0  0  0  0  0  0  0  0  0  0  0
    0.3020   -2.5559    0.0000 O   0  0  0  0  0  0  0  0  0  0  0  0
   -0.8250   -2.8579    0.0000 C   0  0  0  0  0  0  0  0  0  0  0  0
   -0.4125   -3.5724    0.0000 C   0  0  0  0  0  0  0  0  0  0  0  0
  1  2  1  0  0  0  0
  2  3  1  0  0  0  0
  2  4  2  0  0  0  0
  4  5  1  0  0  0  0
  5  6  1  0  0  0  0
  6  7  1  0  0  0  0
  7  8  1  0  0  0  0
  7  9  1  0  0  0  0
  7 10  1  0  0  0  0
 10 11  2  0  0  0  0
M  END
> <RowID>
1926

> <Original_SMILES>
CC(C)=CCCC(C)(O)C=C

> <Canonical_QSARr>
CC(C)=CCCC(C)(O)C=C

> <InChI_Code_QSARr>
InChI=1S/C10H18O/c1-5-10(4,11)8-6-7-9(2)3/h5,7,11H,1,6,8H2,2-4H3

> <InChI Key_QSARr>
CDOSHBSSFJOMGT-UHFFFAOYSA-N

> <Salt_Solvent>


> <Salt_Solvent_ID>
0

> <Number of connected components>
1

$$$$
Molecule_1928
  Mrv2316 01072400032D          

  4  3  0  0  0  0            999 V2000
    1.2375    0.7145    0.0000 C   0  0  0  0  0  0  0  0  0  0  0  0
    0.8250   -0.0000    0.0000 S   0  0  0  0  0  0  0  0  0  0  0  0
    1.2375   -0.7145    0.0000 C   0  0  0  0  0  0  0  0  0  0  0  0
    0.0000   -0.0000    0.0000 O   0  0  0  0  0  0  0  0  0  0  0  0
  1  2  1  0  0  0  0
  2  3  1  0  0  0  0
  2  4  2  0  0  0  0
M  END
> <RowID>
1928

> <Original_SMILES>
CS(C)=O

> <Canonical_QSARr>
CS(C)=O

> <InChI_Code_QSARr>
InChI=1S/C2H6OS/c1-4(2)3/h1-2H3

> <InChI Key_QSARr>
IAZDPXIOMUYVGZ-UHFFFAOYSA-N

> <Salt_Solvent>


> <Salt_Solvent_ID>
0

> <Number of connected components>
1

$$$$
Molecule_1930
  Mrv2316 01072400032D          

 11 11  0  0  0  0            999 V2000
   -0.0000   -0.7500    0.0000 C   0  0  0  0  0  0  0  0  0  0  0  0
    0.7145   -0.3375    0.0000 C   0  0  0  0  0  0  0  0  0  0  0  0
    1.4289   -0.7500    0.0000 C   0  0  0  0  0  0  0  0  0  0  0  0
    0.7145    0.4875    0.0000 C   0  0  0  0  0  0  0  0  0  0  0  0
    1.4289    0.9000    0.0000 C   0  0  0  0  0  0  0  0  0  0  0  0
    1.4289    1.7250    0.0000 C   0  0  0  0  0  0  0  0  0  0  0  0
    0.7145    2.1375    0.0000 C   0  0  0  0  0  0  0  0  0  0  0  0
    0.7145    2.9625    0.0000 C   0  0  0  0  0  0  0  0  0  0  0  0
   -0.0000    1.7250    0.0000 C   0  0  0  0  0  0  0  0  0  0  0  0
   -0.0000    0.9000    0.0000 C   0  0  0  0  0  0  0  0  0  0  0  0
   -0.7145    0.4875    0.0000 O   0  0  0  0  0  0  0  0  0  0  0  0
  1  2  1  0  0  0  0
  2  3  1  0  0  0  0
  2  4  1  0  0  0  0
  5  4  1  0  0  0  0
  6  5  1  0  0  0  0
  7  6  1  0  0  0  0
  7  8  1  0  0  0  0
  9  7  1  0  0  0  0
 10  9  1  0  0  0  0
  4 10  1  0  0  0  0
 10 11  1  0  0  0  0
M  END
> <RowID>
1930

> <Original_SMILES>
CC(C)C1CCC(C)CC1O

> <Canonical_QSARr>
CC(C)C1CCC(C)CC1O

> <InChI_Code_QSARr>
InChI=1S/C10H20O/c1-7(2)9-5-4-8(3)6-10(9)11/h7-11H,4-6H2,1-3H3

> <InChI Key_QSARr>
NOOLISFMXDJSKH-UHFFFAOYSA-N

> <Salt_Solvent>


> <Salt_Solvent_ID>
0

> <Number of connected components>
1

$$$$
Molecule_1931
  Mrv2316 01072400032D          

 17 18  0  0  0  0            999 V2000
   -0.1105   -1.2375    0.0000 O   0  0  0  0  0  0  0  0  0  0  0  0
    0.7145   -1.2375    0.0000 S   0  0  0  0  0  0  0  0  0  0  0  0
    1.5395   -1.2375    0.0000 O   0  0  0  0  0  0  0  0  0  0  0  0
    0.7145   -0.4125    0.0000 C   0  0  0  0  0  0  0  0  0  0  0  0
    1.4289    0.0000    0.0000 C   0  0  0  0  0  0  0  0  0  0  0  0
    1.4289    0.8250    0.0000 C   0  0  0  0  0  0  0  0  0  0  0  0
    0.7145    1.2375    0.0000 C   0  0  0  0  0  0  0  0  0  0  0  0
    0.7145    2.0625    0.0000 Cl  0  0  0  0  0  0  0  0  0  0  0  0
    0.0000    0.8250    0.0000 C   0  0  0  0  0  0  0  0  0  0  0  0
    0.0000    0.0000    0.0000 C   0  0  0  0  0  0  0  0  0  0  0  0
    0.7145   -2.0625    0.0000 C   0  0  0  0  0  0  0  0  0  0  0  0
    0.0000   -2.4750    0.0000 C   0  0  0  0  0  0  0  0  0  0  0  0
    0.0000   -3.3000    0.0000 C   0  0  0  0  0  0  0  0  0  0  0  0
    0.7145   -3.7125    0.0000 C   0  0  0  0  0  0  0  0  0  0  0  0
    0.7145   -4.5375    0.0000 Cl  0  0  0  0  0  0  0  0  0  0  0  0
    1.4289   -3.3000    0.0000 C   0  0  0  0  0  0  0  0  0  0  0  0
    1.4289   -2.4750    0.0000 C   0  0  0  0  0  0  0  0  0  0  0  0
  1  2  2  0  0  0  0
  2  3  2  0  0  0  0
  2  4  1  0  0  0  0
  5  4  1  0  0  0  0
  6  5  2  0  0  0  0
  7  6  1  0  0  0  0
  7  8  1  0  0  0  0
  9  7  2  0  0  0  0
 10  9  1  0  0  0  0
  4 10  2  0  0  0  0
  2 11  1  0  0  0  0
 12 11  1  0  0  0  0
 13 12  2  0  0  0  0
 14 13  1  0  0  0  0
 14 15  1  0  0  0  0
 16 14  2  0  0  0  0
 17 16  1  0  0  0  0
 11 17  2  0  0  0  0
M  END
> <RowID>
1931

> <Original_SMILES>
O=S(=O)(C1C=CC(Cl)=CC=1)C1C=CC(Cl)=CC=1

> <Canonical_QSARr>
O=S(=O)(C1C=CC(Cl)=CC=1)C1C=CC(Cl)=CC=1

> <InChI_Code_QSARr>
InChI=1S/C12H8Cl2O2S/c13-9-1-5-11(6-2-9)17(15,16)12-7-3-10(14)4-8-12/h1-8H

> <InChI Key_QSARr>
GPAPPPVRLPGFEQ-UHFFFAOYSA-N

> <Salt_Solvent>


> <Salt_Solvent_ID>
0

> <Number of connected components>
1

$$$$
Molecule_1932
  Mrv2316 01072400032D          

  7  7  0  0  0  0            999 V2000
    1.0781    2.3518    0.0000 O   0  0  0  0  0  0  0  0  0  0  0  0
    0.3636    1.9393    0.0000 C   0  0  0  0  0  0  0  0  0  0  0  0
    0.3636    1.1143    0.0000 C   0  0  0  0  0  0  0  0  0  0  0  0
   -0.3038    0.6294    0.0000 C   0  0  0  0  0  0  0  0  0  0  0  0
   -0.0489   -0.1553    0.0000 C   0  0  0  0  0  0  0  0  0  0  0  0
    0.7761   -0.1553    0.0000 C   0  0  0  0  0  0  0  0  0  0  0  0
    1.0311    0.6294    0.0000 O   0  0  0  0  0  0  0  0  0  0  0  0
  1  2  1  0  0  0  0
  2  3  1  0  0  0  0
  4  3  1  0  0  0  0
  5  4  1  0  0  0  0
  6  5  1  0  0  0  0
  7  6  1  0  0  0  0
  3  7  1  0  0  0  0
M  END
> <RowID>
1932

> <Original_SMILES>
OCC1CCCO1

> <Canonical_QSARr>
OCC1CCCO1

> <InChI_Code_QSARr>
InChI=1S/C5H10O2/c6-4-5-2-1-3-7-5/h5-6H,1-4H2

> <InChI Key_QSARr>
BSYVTEYKTMYBMK-UHFFFAOYSA-N

> <Salt_Solvent>


> <Salt_Solvent_ID>
0

> <Number of connected components>
1

$$$$
Molecule_1933
  Mrv2316 01072400032D          

  4  3  0  0  0  0            999 V2000
    1.2375    0.7145    0.0000 O   0  0  0  0  0  0  0  0  0  0  0  0
    0.8250   -0.0000    0.0000 C   0  0  0  0  0  0  0  0  0  0  0  0
    1.2375   -0.7145    0.0000 O   0  0  0  0  0  0  0  0  0  0  0  0
    0.0000   -0.0000    0.0000 O   0  0  0  0  0  0  0  0  0  0  0  0
  1  2  1  0  0  0  0
  2  3  2  0  0  0  0
  2  4  1  0  0  0  0
M  END
> <RowID>
1933

> <Original_SMILES>
[Na+].[O-]C(O)=O

> <Canonical_QSARr>
OC(O)=O

> <InChI_Code_QSARr>
InChI=1S/CH2O3/c2-1(3)4/h(H2,2,3,4)

> <InChI Key_QSARr>
BVKZGUZCCUSVTD-UHFFFAOYSA-N

> <Salt_Solvent>
[Na+]

> <Salt_Solvent_ID>
110

> <Number of connected components>
2

$$$$
Molecule_1936
  Mrv2316 01072400032D          

 12 11  0  0  0  0            999 V2000
    4.6184    0.1914    0.0000 C   0  0  0  0  0  0  0  0  0  0  0  0
    3.9039    0.6039    0.0000 C   0  0  0  0  0  0  0  0  0  0  0  0
    3.1895    0.1914    0.0000 C   0  0  0  0  0  0  0  0  0  0  0  0
    3.9039    1.4289    0.0000 C   0  0  0  0  0  0  0  0  0  0  0  0
    3.1895    1.8414    0.0000 N   0  0  0  0  0  0  0  0  0  0  0  0
    2.4750    1.4289    0.0000 C   0  0  0  0  0  0  0  0  0  0  0  0
    1.7605    1.8414    0.0000 N   0  0  0  0  0  0  0  0  0  0  0  0
    2.4750    0.6039    0.0000 O   0  0  0  0  0  0  0  0  0  0  0  0
    4.6184    1.8414    0.0000 N   0  0  0  0  0  0  0  0  0  0  0  0
    5.3329    1.4289    0.0000 C   0  0  0  0  0  0  0  0  0  0  0  0
    6.0474    1.8414    0.0000 N   0  0  0  0  0  0  0  0  0  0  0  0
    5.3329    0.6039    0.0000 O   0  0  0  0  0  0  0  0  0  0  0  0
  1  2  1  0  0  0  0
  2  3  1  0  0  0  0
  2  4  1  0  0  0  0
  4  5  1  0  0  0  0
  5  6  1  0  0  0  0
  6  7  1  0  0  0  0
  6  8  2  0  0  0  0
  4  9  1  0  0  0  0
  9 10  1  0  0  0  0
 10 11  1  0  0  0  0
 10 12  2  0  0  0  0
M  END
> <RowID>
1936

> <Original_SMILES>
CC(C)C(NC(N)=O)NC(N)=O

> <Canonical_QSARr>
CC(C)C(NC(N)=O)NC(N)=O

> <InChI_Code_QSARr>
InChI=1S/C6H14N4O2/c1-3(2)4(9-5(7)11)10-6(8)12/h3-4H,1-2H3,(H3,7,9,11)(H3,8,10,12)

> <InChI Key_QSARr>
QFHMNFAUXJAINK-UHFFFAOYSA-N

> <Salt_Solvent>


> <Salt_Solvent_ID>
0

> <Number of connected components>
1

$$$$
Molecule_1937
  Mrv2316 01072400032D          

 11 11  0  0  0  0            999 V2000
   -0.0000   -0.7500    0.0000 C   0  0  0  0  0  0  0  0  0  0  0  0
    0.7145   -0.3375    0.0000 C   0  0  0  0  0  0  0  0  0  0  0  0
    1.4289   -0.7500    0.0000 C   0  0  0  0  0  0  0  0  0  0  0  0
    0.7145    0.4875    0.0000 C   0  0  0  0  0  0  0  0  0  0  0  0
    1.4289    0.9000    0.0000 C   0  0  0  0  0  0  0  0  0  0  0  0
    1.4289    1.7250    0.0000 C   0  0  0  0  0  0  0  0  0  0  0  0
    0.7145    2.1375    0.0000 C   0  0  0  0  0  0  0  0  0  0  0  0
    0.7145    2.9625    0.0000 C   0  0  0  0  0  0  0  0  0  0  0  0
   -0.0000    1.7250    0.0000 C   0  0  0  0  0  0  0  0  0  0  0  0
   -0.0000    0.9000    0.0000 C   0  0  0  0  0  0  0  0  0  0  0  0
   -0.7145    0.4875    0.0000 O   0  0  0  0  0  0  0  0  0  0  0  0
  1  2  1  0  0  0  0
  2  3  1  0  0  0  0
  2  4  1  0  0  0  0
  5  4  1  0  0  0  0
  6  5  1  0  0  0  0
  7  6  1  0  0  0  0
  7  8  1  0  0  0  0
  9  7  1  0  0  0  0
 10  9  1  0  0  0  0
  4 10  1  0  0  0  0
 10 11  1  0  0  0  0
M  END
> <RowID>
1937

> <Original_SMILES>
CC(C)C1CCC(C)CC1O

> <Canonical_QSARr>
CC(C)C1CCC(C)CC1O

> <InChI_Code_QSARr>
InChI=1S/C10H20O/c1-7(2)9-5-4-8(3)6-10(9)11/h7-11H,4-6H2,1-3H3

> <InChI Key_QSARr>
NOOLISFMXDJSKH-UHFFFAOYSA-N

> <Salt_Solvent>


> <Salt_Solvent_ID>
0

> <Number of connected components>
1

$$$$
Molecule_1939
  Mrv2316 01072400032D          

 14 13  0  0  0  0            999 V2000
    2.9684    1.8414    0.0000 C   0  0  0  0  0  0  0  0  0  0  0  0
    2.2539    1.4289    0.0000 C   0  0  0  0  0  0  0  0  0  0  0  0
    1.5395    1.8414    0.0000 O   0  0  0  0  0  0  0  0  0  0  0  0
    0.8250    1.4289    0.0000 Si  0  0  0  0  0  0  0  0  0  0  0  0
    0.1105    1.0164    0.0000 C   0  0  0  0  0  0  0  0  0  0  0  0
   -0.6039    1.4289    0.0000 C   0  0  0  0  0  0  0  0  0  0  0  0
   -1.3184    1.0164    0.0000 C   0  0  0  0  0  0  0  0  0  0  0  0
   -2.0329    0.6039    0.0000 N   0  0  0  0  0  0  0  0  0  0  0  0
    0.4125    2.1434    0.0000 O   0  0  0  0  0  0  0  0  0  0  0  0
   -0.4125    2.1434    0.0000 C   0  0  0  0  0  0  0  0  0  0  0  0
   -0.8250    2.8579    0.0000 C   0  0  0  0  0  0  0  0  0  0  0  0
    1.2375    0.7144    0.0000 O   0  0  0  0  0  0  0  0  0  0  0  0
    0.8250   -0.0000    0.0000 C   0  0  0  0  0  0  0  0  0  0  0  0
   -0.0000   -0.0000    0.0000 C   0  0  0  0  0  0  0  0  0  0  0  0
  1  2  1  0  0  0  0
  2  3  1  0  0  0  0
  3  4  1  0  0  0  0
  4  5  1  0  0  0  0
  5  6  1  0  0  0  0
  6  7  1  0  0  0  0
  7  8  3  0  0  0  0
  4  9  1  0  0  0  0
  9 10  1  0  0  0  0
 10 11  1  0  0  0  0
  4 12  1  0  0  0  0
 12 13  1  0  0  0  0
 13 14  1  0  0  0  0
M  END
> <RowID>
1939

> <Original_SMILES>
CCO[Si](CCC#N)(OCC)OCC

> <Canonical_QSARr>
CCO[Si](CCC#N)(OCC)OCC

> <InChI_Code_QSARr>
InChI=1S/C9H19NO3Si/c1-4-11-14(12-5-2,13-6-3)9-7-8-10/h4-7,9H2,1-3H3

> <InChI Key_QSARr>
GBQYMXVQHATSCC-UHFFFAOYSA-N

> <Salt_Solvent>


> <Salt_Solvent_ID>
0

> <Number of connected components>
1

$$$$
Molecule_1940
  Mrv2316 01072400032D          

 12 12  0  0  0  0            999 V2000
    1.9830    0.7711    0.0000 O   0  0  0  0  0  0  0  0  0  0  0  0
    1.1984    0.5161    0.0000 C   0  0  0  0  0  0  0  0  0  0  0  0
    0.5310    1.0010    0.0000 C   0  0  0  0  0  0  0  0  0  0  0  0
    0.5310    1.8260    0.0000 O   0  0  0  0  0  0  0  0  0  0  0  0
   -0.1365    0.5161    0.0000 N   0  0  0  0  0  0  0  0  0  0  0  0
   -0.9211    0.7711    0.0000 C   0  0  0  0  0  0  0  0  0  0  0  0
   -1.0926    1.5780    0.0000 O   0  0  0  0  0  0  0  0  0  0  0  0
    0.1185   -0.2685    0.0000 C   0  0  0  0  0  0  0  0  0  0  0  0
   -0.3664   -0.9359    0.0000 O   0  0  0  0  0  0  0  0  0  0  0  0
    0.9435   -0.2685    0.0000 N   0  0  0  0  0  0  0  0  0  0  0  0
    1.4284   -0.9359    0.0000 C   0  0  0  0  0  0  0  0  0  0  0  0
    2.2489   -0.8497    0.0000 O   0  0  0  0  0  0  0  0  0  0  0  0
  1  2  1  0  0  0  0
  3  2  1  0  0  0  0
  3  4  1  0  0  0  0
  5  3  1  0  0  0  0
  5  6  1  0  0  0  0
  6  7  1  0  0  0  0
  8  5  1  0  0  0  0
  8  9  2  0  0  0  0
 10  8  1  0  0  0  0
  2 10  1  0  0  0  0
 10 11  1  0  0  0  0
 11 12  1  0  0  0  0
M  END
> <RowID>
1940

> <Original_SMILES>
OC1C(O)N(CO)C(=O)N1CO

> <Canonical_QSARr>
OC1C(O)N(CO)C(=O)N1CO

> <InChI_Code_QSARr>
InChI=1S/C5H10N2O5/c8-1-6-3(10)4(11)7(2-9)5(6)12/h3-4,8-11H,1-2H2

> <InChI Key_QSARr>
ZEYUSQVGRCPBPG-UHFFFAOYSA-N

> <Salt_Solvent>


> <Salt_Solvent_ID>
0

> <Number of connected components>
1

$$$$
